-------------------------------------------------------
          Amber 18 PMEMD                              2018
          -------------------------------------------------------

  [-O]verwriting output

File Assignments:

 Here is the input file:

TI simulation
 &cntrl
   imin = 0, nstlim = 100000, irest = 1, ntx = 5, dt = 0.002,
   ntt = 3, temp0 = 300.0, gamma_ln = 2.0, ig = -1,
   ntc = 2, ntf = 1,
   ntb = 2,
   ntp = 1, pres0 = 1.0, taup = 2.0,
   ioutfm = 1, iwrap = 1,
   ntwe = 1000, ntwx = 10000, ntpr = 10000, ntwr = 20000,

   icfe = 1, clambda = 0.4, scalpha = 0.5, scbeta = 12.0,
   logdvdl = 1,
   ifmbar = 1, bar_intervall = 1000, mbar_states = 11,
   mbar_lambda = 0.0, 0.1, 0.2, 0.3, 0.4, 0.5, 0.6, 0.7, 0.8, 0.9, 1.0,
   timask1 = ':1', timask2 = ':2',
   ifsc=1, scmask1=':1@H6', scmask2=':2@O1,H6', crgmask=':1@H6 | :2@O1,H6'
 /

 &ewald
 /

Note: ig = -1. Setting random seed to   606990 based on wallclock time in
      microseconds and disabling the synchronization of random numbers
      between tasks to improve performance.

--------------------------------------------------------------------------------
   1.  RESOURCE   USE:
--------------------------------------------------------------------------------

 getting box info from netcdf restart file
 NATOM  =   30553 NTYPES =      17 NBONH =   29246 MBONA  =    1323
 NTHETH =    2992 MTHETA =    1779 NPHIH =    6075 MPHIA  =    5535
 NHPARM =       0 NPARM  =       0 NNB   =   51644 NRES   =    9475
 NBONA  =    1323 NTHETA =    1779 NPHIA =    5535 NUMBND =      69
 NUMANG =     153 NPTRA  =     180 NATYP =      38 NPHB   =       1
 IFBOX  =       1 NMXRS  =      24 IFCAP =       0 NEXTRA =       0
 NCOPY  =       0

     BOX TYPE: RECTILINEAR

--------------------------------------------------------------------------------
   2.  CONTROL  DATA  FOR  THE  RUN
--------------------------------------------------------------------------------

default_name

General flags:
     imin    =       0, nmropt  =       0

Nature and format of input:
     ntx     =       5, irest   =       1, ntrx    =       1

Nature and format of output:
     ntxo    =       2, ntpr    =   10000, ntrx    =       1, ntwr    =   20000
     iwrap   =       1, ntwx    =   10000, ntwv    =       0, ntwe    =    1000
     ioutfm  =       1, ntwprt  =       0, idecomp =       0, rbornstat=      0

Potential function:
     ntf     =       1, ntb     =       2, igb     =       0, nsnb    =      25
     ipol    =       0, gbsa    =       0, iesp    =       0
     dielc   =   1.00000, cut     =   8.00000, intdiel =   1.00000

Frozen or restrained atoms:
     ibelly  =       0, ntr     =       0

Molecular dynamics:
     nstlim  =    100000, nscm    =      1000, nrespa  =         1
     t       =   0.00000, dt      =   0.00200, vlimit  =  20.00000

Langevin dynamics temperature regulation:
     ig      =  606990
     temp0   = 300.00000, tempi   =   0.00000, gamma_ln=   2.00000

Pressure regulation:
     ntp     =       1
     pres0   =   1.00000, comp    =  44.60000, taup    =   2.00000

SHAKE:
     ntc     =       2, jfastw  =       0
     tol     =   0.00001

Free energy options:
     icfe    =       1, ifsc    =       1, klambda =       1
     clambda =  0.4000, scalpha =  0.5000, scbeta  = 12.0000
     sceeorder =       2
     dynlmb =  0.0000 logdvdl =       1

FEP MBAR options:
     ifmbar  =       1,  bar_intervall =     1000
     mbar_states =      11

Ewald parameters:
     verbose =       0, ew_type =       0, nbflag  =       1, use_pme =       1
     vdwmeth =       1, eedmeth =       1, netfrc  =       1
     Box X =   64.432   Box Y =   68.700   Box Z =   77.129
     Alpha =   90.000   Beta  =   90.000   Gamma =   90.000
     NFFT1 =   72       NFFT2 =   72       NFFT3 =   80
     Cutoff=    8.000   Tol   =0.100E-04
     Ewald Coefficient =  0.34864
     Interpolation order =    4

     TI Mask 1 :1; matches     12 atoms
     TI Mask 2 :2; matches     13 atoms
     TI region 1:   30540 atoms
     TI region 2:   30541 atoms
     SC Mask 1 :1@H6; matches      1 atoms
     SC Mask 2 :2@O1,H6; matches      2 atoms
Removing charge of       0.1305 from atom      12
Removing charge of      -0.5539 from atom      24
Removing charge of       0.3791 from atom      25
Total charge of  -0.04433900 removed from       3 atoms

    MBAR - lambda values considered:
      11 total:  0.0000 0.1000 0.2000 0.3000 0.4000 0.5000 0.6000 0.7000 0.8000 0.9000 1.0000
    Extra energies will be computed    100 times.

--------------------------------------------------------------------------------
   3.  ATOMIC COORDINATES AND VELOCITIES
--------------------------------------------------------------------------------

default_name
 begin time read from input coords =    20.000 ps

     Molecule     1 is partially softcore
     Molecule     2 is partially softcore
 Number of triangulated 3-point waters found:     9307
 WARNING: SHAKEn bond for atoms       12       11 is partially softcore.
 Coordinates for common atoms will be synchronized from V0.
 Consider using noshake mask or disabling SHAKE.

 Number of shake restraints removed in TI region  1 :        0
 Number of shake restraints removed in TI region  2 :        0

     Sum of charges for TI region  1 =  -0.13012107
     Assuming uniform neutralizing plasma

     Sum of charges for TI region  2 =   0.17526093
     Assuming uniform neutralizing plasma

--------------------------------------------------------------------------------
   4.  RESULTS
 NSTEP =    10000   TIME(PS) =      40.000  TEMP(K) =   299.62  PRESS =   474.2
 Etot   =    -73637.4429  EKtot   =     18570.3290  EPtot      =    -92207.7719
 BOND   =       479.4951  ANGLE   =      1183.0232  DIHED      =      2019.8993
 1-4 NB =       612.9353  1-4 EEL =      5967.5422  VDWAALS    =     11942.2071
 EELEC  =   -114412.8741  EHBOND  =         0.0000  RESTRAINT  =         0.0000
 EKCMT  =      8409.5961  VIRIAL  =      5229.9780  VOLUME     =    310521.2304
                                                    Density    =         0.9959
 DV/DL  =         0.9785
 Ewald error estimate:   0.9911E-04
 ------------------------------------------------------------------------------

      A V E R A G E S   O V E R      10 S T E P S

 NSTEP =   100000   TIME(PS) =     220.000  TEMP(K) =   301.16  PRESS =   110.6
 Etot   =    -73897.3724  EKtot   =     18666.0411  EPtot      =    -92563.4135
 BOND   =       499.1040  ANGLE   =      1241.8690  DIHED      =      2052.0727
 1-4 NB =       609.9403  1-4 EEL =      5935.0491  VDWAALS    =     11627.0002
 EELEC  =   -114528.4488  EHBOND  =         0.0000  RESTRAINT  =         0.0000
 EKCMT  =      8387.4619  VIRIAL  =      7651.9253  VOLUME     =    306507.0548
                                                    Density    =         1.0090
 DV/DL  =         5.1776
 Ewald error estimate:   0.6717E-04
 ------------------------------------------------------------------------------

      R M S  F L U C T U A T I O N S

 NSTEP =   100000   TIME(PS) =     220.000  TEMP(K) =     1.90  PRESS =   144.6
 Etot   =       170.3290  EKtot   =       117.8905  EPtot      =       189.0377
 BOND   =        26.5997  ANGLE   =        27.9083  DIHED      =        16.2766
 1-4 NB =        11.7748  1-4 EEL =        23.8044  VDWAALS    =       143.1682
 EELEC  =       205.4103  EHBOND  =         0.0000  RESTRAINT  =         0.0000
 EKCMT  =        58.5331  VIRIAL  =       971.4461  VOLUME     =      1430.5396
                                                    Density    =         0.0047
 DV/DL  =         3.4658
 Ewald error estimate:   0.3335E-04
 ------------------------------------------------------------------------------

      A V E R A G E S   O V E R      10 S T E P S

 NSTEP =   100000   TIME(PS) =     220.000  TEMP(K) =   301.15  PRESS =   110.6
 Etot   =    -73896.7767  EKtot   =     18666.6369  EPtot      =    -92563.4135
 BOND   =       499.1040  ANGLE   =      1241.8690  DIHED      =      2052.0727
 1-4 NB =       609.9403  1-4 EEL =      5935.0491  VDWAALS    =     11627.0002
 EELEC  =   -114528.4488  EHBOND  =         0.0000  RESTRAINT  =         0.0000
 EKCMT  =      8387.4619  VIRIAL  =      7651.9253  VOLUME     =    306507.0548
                                                    Density    =         1.0091
 DV/DL  =         5.1776
 Ewald error estimate:   0.6717E-04
 ------------------------------------------------------------------------------

      R M S  F L U C T U A T I O N S

 NSTEP =   100000   TIME(PS) =     220.000  TEMP(K) =     1.91  PRESS =   144.6
 Etot   =       170.5591  EKtot   =       118.1479  EPtot      =       189.0377
 BOND   =        26.5997  ANGLE   =        27.9083  DIHED      =        16.2766
 1-4 NB =        11.7748  1-4 EEL =        23.8044  VDWAALS    =       143.1682
 EELEC  =       205.4103  EHBOND  =         0.0000  RESTRAINT  =         0.0000
 EKCMT  =        58.5331  VIRIAL  =       971.4461  VOLUME     =      1430.5396
                                                    Density    =         0.0047
 DV/DL  =         3.4658
 Ewald error estimate:   0.3335E-04
 ------------------------------------------------------------------------------

      DV/DL, AVERAGES OVER      10 STEPS

 NSTEP =   100000   TIME(PS) =     220.000  TEMP(K) =     1.91  PRESS =     0.0
 Etot   =         0.0000  EKtot   =         0.0000  EPtot      =         5.1776
 BOND   =        -0.0000  ANGLE   =         0.0000  DIHED      =         0.0000
 1-4 NB =         0.0000  1-4 EEL =        -8.1218  VDWAALS    =        -0.0956
 EELEC  =        13.3951  EHBOND  =         0.0000  RESTRAINT  =         0.0000
 EKCMT  =         0.0000  VIRIAL  =         0.0000  VOLUME     =         0.0000
                                                    Density    =         0.0000
 DV/DL  =         5.1776
 Ewald error estimate:   0.0000E+00
 ------------------------------------------------------------------------------
