-------------------------------------------------------
          Amber 16 PMEMD                              2016
          -------------------------------------------------------

  [-O]verwriting output

File Assignments:

 Here is the input file:

TI simulation
 &cntrl
   imin = 0, nstlim = 100000, irest = 1, ntx = 5, dt = 0.002,
   ntt = 3, temp0 = 300.0, gamma_ln = 2.0, ig = -1,
   vlimit = 20,
   ntc = 2, ntf = 1,
   ntb = 2,
   ntp = 1, pres0 = 1.0, taup = 2.0,
   ioutfm = 1, iwrap = 1,
   ntwe = 1000, ntwx = 10000, ntpr = 10000, ntwr = 20000,

   icfe = 1, clambda = 0.600, scalpha = 0.5, scbeta = 12.0,
   logdvdl = 1,
   ifmbar = 1, bar_intervall = 1000, mbar_states = 11,
   mbar_lambda = 0.0,0.1,0.2,0.3,0.4,0.5,0.6,0.7,0.8,0.9,1.0,
   timask1 = ':1', timask2 = ':2',
   ifsc = 1, scmask1=':1@H7', scmask2=':2@H7,O1', crgmask = ':1@H7|:2@H7,O1'
 /

 &ewald
 /

Note: ig = -1. Setting random seed to   227302 based on wallclock time in
      microseconds.

--------------------------------------------------------------------------------
   1.  RESOURCE   USE:
--------------------------------------------------------------------------------

 getting box info from netcdf restart file
 NATOM  =   24925 NTYPES =      16 NBONH =   23618 MBONA  =    1323
 NTHETH =   25285 MTHETA =    1779 NPHIH =    6059 MPHIA  =    5535
 NHPARM =       0 NPARM  =       0 NNB   =   44142 NRES   =    7599
 NBONA  =    1323 NTHETA =    1779 NPHIA =    5535 NUMBND =      69
 NUMANG =     155 NPTRA  =     186 NATYP =      38 NPHB   =       0
 IFBOX  =       1 NMXRS  =      24 IFCAP =       0 NEXTRA =       0
 NCOPY  =       0

     BOX TYPE: RECTILINEAR

--------------------------------------------------------------------------------
   2.  CONTROL  DATA  FOR  THE  RUN
--------------------------------------------------------------------------------

NIL

General flags:
     imin    =       0, nmropt  =       0

Nature and format of input:
     ntx     =       5, irest   =       1, ntrx    =       1

Nature and format of output:
     ntxo    =       2, ntpr    =   10000, ntrx    =       1, ntwr    =   20000
     iwrap   =       1, ntwx    =   10000, ntwv    =       0, ntwe    =    1000
     ioutfm  =       1, ntwprt  =       0, idecomp =       0, rbornstat=      0

Potential function:
     ntf     =       1, ntb     =       2, igb     =       0, nsnb    =      25
     ipol    =       0, gbsa    =       0, iesp    =       0
     dielc   =   1.00000, cut     =   8.00000, intdiel =   1.00000

Frozen or restrained atoms:
     ibelly  =       0, ntr     =       0

Molecular dynamics:
     nstlim  =    100000, nscm    =      1000, nrespa  =         1
     t       =   0.00000, dt      =   0.00200, vlimit  =  20.00000

Langevin dynamics temperature regulation:
     ig      =  227302
     temp0   = 300.00000, tempi   =   0.00000, gamma_ln=   2.00000

Pressure regulation:
     ntp     =       1
     pres0   =   1.00000, comp    =  44.60000, taup    =   2.00000

SHAKE:
     ntc     =       2, jfastw  =       0
     tol     =   0.00001

Free energy options:
     icfe    =       1, ifsc    =       1, klambda =       1
     clambda =  0.6000, scalpha =  0.5000, scbeta  = 12.0000
     sceeorder =       2
     dynlmb =  0.0000 logdvdl =       1

FEP MBAR options:
     ifmbar  =       1,  bar_intervall =     1000
     mbar_states =      11

Ewald parameters:
     verbose =       0, ew_type =       0, nbflag  =       1, use_pme =       1
     vdwmeth =       1, eedmeth =       1, netfrc  =       1
     Box X =   57.889   Box Y =   61.784   Box Z =   69.910
     Alpha =   90.000   Beta  =   90.000   Gamma =   90.000
     NFFT1 =   64       NFFT2 =   64       NFFT3 =   72
     Cutoff=    8.000   Tol   =0.100E-04
     Ewald Coefficient =  0.34864
     Interpolation order =    4
     TI Mask 1 :1; matches     12 atoms
     TI Mask 2 :2; matches     13 atoms
     TI region 1:   24912 atoms
     TI region 2:   24913 atoms
     SC Mask 1 :1@H7; matches      1 atoms
     SC Mask 2 :2@H7,O1; matches      2 atoms
Removing charge of       0.1300 from atom      12
Removing charge of      -0.6242 from atom      24
Removing charge of       0.4181 from atom      25
Total charge of  -0.07614616 removed from       3 atoms

    MBAR - lambda values considered:
      11 total:  0.0000 0.1000 0.2000 0.3000 0.4000 0.5000 0.6000 0.7000 0.8000 0.9000 1.0000
    Extra energies will be computed    100 times.

--------------------------------------------------------------------------------
   3.  ATOMIC COORDINATES AND VELOCITIES
--------------------------------------------------------------------------------

NIL
 begin time read from input coords =    20.000 ps

     Molecule     1 is partially softcore
     Molecule     2 is partially softcore
 Number of triangulated 3-point waters found:     7431
   Removing shake constraints from H7    COR   1 -- C_12  COR   1
 Number of shake restraints removed in TI region  1 :        1
 Number of shake restraints removed in TI region  2 :        0

     Sum of charges for TI region  1 =  -0.12960818
     Assuming uniform neutralizing plasma

     Sum of charges for TI region  2 =   0.20653798
     Assuming uniform neutralizing plasma

--------------------------------------------------------------------------------
   4.  RESULTS
 NSTEP =    10000   TIME(PS) =      40.000  TEMP(K) =   300.83  PRESS =   207.0
 Etot   =    -59334.6880  EKtot   =     15281.3483  EPtot      =    -74616.0363
 BOND   =       499.3736  ANGLE   =      1251.1142  DIHED      =      2074.5817
 1-4 NB =       651.9124  1-4 EEL =      5958.3594  VDWAALS    =      9151.5521
 EELEC  =    -94202.9298  EHBOND  =         0.0000  RESTRAINT  =         0.0000
 EKCMT  =      6667.5096  VIRIAL  =      5552.4286  VOLUME     =    249486.3763
                                                    Density    =         1.0146
 DV/DL  =        -2.1783
 ------------------------------------------------------------------------------

      A V E R A G E S   O V E R      10 S T E P S

 NSTEP =   100000   TIME(PS) =     220.000  TEMP(K) =   300.01  PRESS =    61.6
 Etot   =    -59417.5724  EKtot   =     15239.8925  EPtot      =    -74657.4649
 BOND   =       502.9125  ANGLE   =      1261.1037  DIHED      =      2044.4545
 1-4 NB =       666.7704  1-4 EEL =      6023.8629  VDWAALS    =      8876.0032
 EELEC  =    -94032.5722  EHBOND  =         0.0000  RESTRAINT  =         0.0000
 EKCMT  =      6685.0946  VIRIAL  =      6353.5988  VOLUME     =    248977.9385
                                                    Density    =         1.0167
 DV/DL  =         3.0144
 ------------------------------------------------------------------------------

      R M S  F L U C T U A T I O N S

 NSTEP =   100000   TIME(PS) =     220.000  TEMP(K) =     2.03  PRESS =    95.5
 Etot   =       160.9031  EKtot   =       103.3393  EPtot      =       117.3692
 BOND   =        19.3516  ANGLE   =        26.6166  DIHED      =        15.2965
 1-4 NB =        14.3264  1-4 EEL =        35.5860  VDWAALS    =       129.0184
 EELEC  =       192.4481  EHBOND  =         0.0000  RESTRAINT  =         0.0000
 EKCMT  =        58.1750  VIRIAL  =       556.4103  VOLUME     =       344.1626
                                                    Density    =         0.0014
 DV/DL  =         2.5512
 ------------------------------------------------------------------------------

      A V E R A G E S   O V E R      10 S T E P S

 NSTEP =   100000   TIME(PS) =     220.000  TEMP(K) =   300.02  PRESS =    61.6
 Etot   =    -59416.7890  EKtot   =     15240.6759  EPtot      =    -74657.4649
 BOND   =       502.9125  ANGLE   =      1261.1037  DIHED      =      2044.4545
 1-4 NB =       666.7704  1-4 EEL =      6023.8629  VDWAALS    =      8876.0032
 EELEC  =    -94032.5722  EHBOND  =         0.0000  RESTRAINT  =         0.0000
 EKCMT  =      6685.0946  VIRIAL  =      6353.5988  VOLUME     =    248977.9385
                                                    Density    =         1.0168
 DV/DL  =         3.0144
 ------------------------------------------------------------------------------

      R M S  F L U C T U A T I O N S

 NSTEP =   100000   TIME(PS) =     220.000  TEMP(K) =     2.05  PRESS =    95.5
 Etot   =       161.1866  EKtot   =       103.9358  EPtot      =       117.3692
 BOND   =        19.3516  ANGLE   =        26.6166  DIHED      =        15.2965
 1-4 NB =        14.3264  1-4 EEL =        35.5860  VDWAALS    =       129.0184
 EELEC  =       192.4481  EHBOND  =         0.0000  RESTRAINT  =         0.0000
 EKCMT  =        58.1750  VIRIAL  =       556.4103  VOLUME     =       344.1626
                                                    Density    =         0.0014
 DV/DL  =         2.5512
 ------------------------------------------------------------------------------

      DV/DL, AVERAGES OVER      10 STEPS

 NSTEP =   100000   TIME(PS) =     220.000  TEMP(K) =     2.05  PRESS =     0.0
 Etot   =         0.0000  EKtot   =         0.0000  EPtot      =         3.0144
 BOND   =         0.0000  ANGLE   =         0.0000  DIHED      =         0.0000
 1-4 NB =         0.0000  1-4 EEL =        -8.0376  VDWAALS    =        -2.2218
 EELEC  =        12.0111  EHBOND  =         0.0000  RESTRAINT  =         0.0000
 EKCMT  =         0.0000  VIRIAL  =         0.0000  VOLUME     =         0.0000
                                                    Density    =         0.0000
 DV/DL  =         3.0144
 ------------------------------------------------------------------------------
