-------------------------------------------------------
          Amber 18 PMEMD                              2018
          -------------------------------------------------------

  [-O]verwriting output

File Assignments:

 Here is the input file:

TI simulation
 &cntrl
   imin = 0, nstlim = 100000, irest = 1, ntx = 5, dt = 0.002,
   ntt = 3, temp0 = 300.0, gamma_ln = 2.0, ig = -1,
   ntc = 2, ntf = 1,
   ntb = 2,
   ntp = 1, pres0 = 1.0, taup = 2.0,
   ioutfm = 1, iwrap = 1,
   ntwe = 1000, ntwx = 10000, ntpr = 10000, ntwr = 20000,

   icfe = 1, clambda = 0.500, scalpha = 0.5, scbeta = 12.0,
   logdvdl = 1,
   ifmbar = 1, bar_intervall = 1000, mbar_states = 3,
   mbar_lambda = 0.0,0.5,1.0,
   timask1 = ':1', timask2 = ':2',
   ifsc = 0, crgmask = ':1@H7'
 /

 &ewald
 /

Note: ig = -1. Setting random seed to   791908 based on wallclock time in
      microseconds.

--------------------------------------------------------------------------------
   1.  RESOURCE   USE:
--------------------------------------------------------------------------------

 getting box info from netcdf restart file
 NATOM  =   24926 NTYPES =      16 NBONH =   23618 MBONA  =    1324
 NTHETH =   25284 MTHETA =    1781 NPHIH =    6059 MPHIA  =    5537
 NHPARM =       0 NPARM  =       0 NNB   =   44146 NRES   =    7599
 NBONA  =    1324 NTHETA =    1781 NPHIA =    5537 NUMBND =      69
 NUMANG =     155 NPTRA  =     186 NATYP =      38 NPHB   =       0
 IFBOX  =       1 NMXRS  =      24 IFCAP =       0 NEXTRA =       0
 NCOPY  =       0

     BOX TYPE: RECTILINEAR

--------------------------------------------------------------------------------
   2.  CONTROL  DATA  FOR  THE  RUN
--------------------------------------------------------------------------------

NIL

General flags:
     imin    =       0, nmropt  =       0

Nature and format of input:
     ntx     =       5, irest   =       1, ntrx    =       1

Nature and format of output:
     ntxo    =       2, ntpr    =   10000, ntrx    =       1, ntwr    =   20000
     iwrap   =       1, ntwx    =   10000, ntwv    =       0, ntwe    =    1000
     ioutfm  =       1, ntwprt  =       0, idecomp =       0, rbornstat=      0

Potential function:
     ntf     =       1, ntb     =       2, igb     =       0, nsnb    =      25
     ipol    =       0, gbsa    =       0, iesp    =       0
     dielc   =   1.00000, cut     =   8.00000, intdiel =   1.00000

Frozen or restrained atoms:
     ibelly  =       0, ntr     =       0

Molecular dynamics:
     nstlim  =    100000, nscm    =      1000, nrespa  =         1
     t       =   0.00000, dt      =   0.00200, vlimit  =  -1.00000

Langevin dynamics temperature regulation:
     ig      =  791908
     temp0   = 300.00000, tempi   =   0.00000, gamma_ln=   2.00000

Pressure regulation:
     ntp     =       1
     pres0   =   1.00000, comp    =  44.60000, taup    =   2.00000

SHAKE:
     ntc     =       2, jfastw  =       0
     tol     =   0.00001

Free energy options:
     icfe    =       1, ifsc    =       0, klambda =       1
     clambda =  0.5000, scalpha =  0.5000, scbeta  = 12.0000
     sceeorder =       2
     dynlmb =  0.0000 logdvdl =       1

FEP MBAR options:
     ifmbar  =       1,  bar_intervall =     1000
     mbar_states =       3

Ewald parameters:
     verbose =       0, ew_type =       0, nbflag  =       1, use_pme =       1
     vdwmeth =       1, eedmeth =       1, netfrc  =       1
     Box X =  112.400   Box Y =  109.712   Box Z =  115.778
     Alpha =   90.000   Beta  =   90.000   Gamma =   90.000
     NFFT1 =  120       NFFT2 =  112       NFFT3 =  120
     Cutoff=    8.000   Tol   =0.100E-04
     Ewald Coefficient =  0.34864
     Interpolation order =    4
     TI Mask 1 :1; matches     13 atoms
     TI Mask 2 :2; matches     13 atoms
     TI region 1:   24913 atoms
     TI region 2:   24913 atoms
Removing charge of       0.4180 from atom      13
Total charge of   0.41799999 removed from       1 atoms

    MBAR - lambda values considered:
       3 total:  0.0000 0.5000 1.0000
    Extra energies will be computed    100 times.
     Checking for mismatched coordinates.

--------------------------------------------------------------------------------
   3.  ATOMIC COORDINATES AND VELOCITIES
--------------------------------------------------------------------------------

NIL
 begin time read from input coords =    20.000 ps

 Number of triangulated 3-point waters found:     7431

     Sum of charges for TI region  1 =  -0.41858370
     Assuming uniform neutralizing plasma

     Sum of charges for TI region  2 =  -0.00058371
     Forcing neutrality...

--------------------------------------------------------------------------------
   4.  RESULTS
 NSTEP =    10000   TIME(PS) =      40.000  TEMP(K) =   301.58  PRESS =   -35.9
 Etot   =    -52971.5789  EKtot   =     15319.9282  EPtot      =    -68291.5071
 BOND   =       536.6841  ANGLE   =      1254.9444  DIHED      =      2073.0659
 1-4 NB =       678.8925  1-4 EEL =      6021.3782  VDWAALS    =      9512.3144
 EELEC  =    -88368.7866  EHBOND  =         0.0000  RESTRAINT  =         0.0000
 EKCMT  =         0.0000  VIRIAL  =      1097.0373  VOLUME     =   1413464.3414
                                                    Density    =         0.1791
 DV/DL  =         0.1503
 ------------------------------------------------------------------------------

      A V E R A G E S   O V E R      10 S T E P S

 NSTEP =   100000   TIME(PS) =     220.000  TEMP(K) =   300.11  PRESS =   -42.7
 Etot   =    -53613.8432  EKtot   =     15245.3380  EPtot      =    -68859.1811
 BOND   =       507.6436  ANGLE   =      1264.6862  DIHED      =      2065.9121
 1-4 NB =       662.3896  1-4 EEL =      5995.2395  VDWAALS    =      9329.0078
 EELEC  =    -88684.0599  EHBOND  =         0.0000  RESTRAINT  =         0.0000
 EKCMT  =         0.0000  VIRIAL  =      1182.8655  VOLUME     =   1302753.1028
                                                    Density    =         0.1952
 DV/DL  =         2.2413
 ------------------------------------------------------------------------------

      R M S  F L U C T U A T I O N S

 NSTEP =   100000   TIME(PS) =     220.000  TEMP(K) =     2.15  PRESS =   142.6
 Etot   =       509.6999  EKtot   =       109.2319  EPtot      =       473.0216
 BOND   =        15.0587  ANGLE   =        30.6033  DIHED      =        19.9944
 1-4 NB =         9.8514  1-4 EEL =        25.4323  VDWAALS    =       151.3188
 EELEC  =       387.5725  EHBOND  =         0.0000  RESTRAINT  =         0.0000
 EKCMT  =         0.0000  VIRIAL  =      3783.6335  VOLUME     =     85202.9321
                                                    Density    =         0.0131
 DV/DL  =         4.0088
 ------------------------------------------------------------------------------

      A V E R A G E S   O V E R      10 S T E P S

 NSTEP =   100000   TIME(PS) =     220.000  TEMP(K) =   300.11  PRESS =   -42.7
 Etot   =    -53613.8432  EKtot   =     15245.3380  EPtot      =    -68859.1811
 BOND   =       507.6436  ANGLE   =      1264.6862  DIHED      =      2065.9121
 1-4 NB =       662.3896  1-4 EEL =      5995.2395  VDWAALS    =      9329.0078
 EELEC  =    -88684.0599  EHBOND  =         0.0000  RESTRAINT  =         0.0000
 EKCMT  =         0.0000  VIRIAL  =      1182.8655  VOLUME     =   1302753.1028
                                                    Density    =         0.1952
 DV/DL  =         2.2413
 ------------------------------------------------------------------------------

      R M S  F L U C T U A T I O N S

 NSTEP =   100000   TIME(PS) =     220.000  TEMP(K) =     2.15  PRESS =   142.6
 Etot   =       509.6999  EKtot   =       109.2319  EPtot      =       473.0216
 BOND   =        15.0587  ANGLE   =        30.6033  DIHED      =        19.9944
 1-4 NB =         9.8514  1-4 EEL =        25.4323  VDWAALS    =       151.3188
 EELEC  =       387.5725  EHBOND  =         0.0000  RESTRAINT  =         0.0000
 EKCMT  =         0.0000  VIRIAL  =      3783.6335  VOLUME     =     85202.9321
                                                    Density    =         0.0131
 DV/DL  =         4.0088
 ------------------------------------------------------------------------------

      DV/DL, AVERAGES OVER      10 STEPS

 NSTEP =   100000   TIME(PS) =     220.000  TEMP(K) =     2.15  PRESS =     0.0
 Etot   =         0.0000  EKtot   =         0.0000  EPtot      =         2.2413
 BOND   =         0.0000  ANGLE   =         0.0000  DIHED      =         0.0000
 1-4 NB =         0.0000  1-4 EEL =       -21.8088  VDWAALS    =         0.0000
 EELEC  =        24.0501  EHBOND  =         0.0000  RESTRAINT  =         0.0000
 EKCMT  =         0.0000  VIRIAL  =         0.0000  VOLUME     =         0.0000
                                                    Density    =         0.0000
 DV/DL  =         2.2413
 ------------------------------------------------------------------------------
