-------------------------------------------------------
          Amber 16 PMEMD                              2016
          -------------------------------------------------------

  [-O]verwriting output

File Assignments:

 Here is the input file:

pressurising
 &cntrl
   imin = 0, nstlim = 10000, irest = 1, ntx = 5, dt = 0.002,
   ntt = 3, temp0 = 300.0, gamma_ln = 2.0, ig = -1,
   tautp = 1.0,
   vlimit = 20,
   ntp = 1, pres0 = 1.0, taup = 2.0,
   ntb = 2,
   ntc = 2, ntf = 1,
   ioutfm = 1, iwrap = 1,
   ntwe = 1000, ntwx = 1000, ntpr = 1000, ntwr = 5000,

   ntr = 1, restraint_wt = 5.00,
   restraintmask='!:WAT & !@H=',

   icfe = 1, ifsc = 1, clambda = 0.5, scalpha = 0.5, scbeta = 12.0,
   logdvdl = 0,
   timask1 = ':1', timask2 = ':2',
   scmask1 = ':1@H7', scmask2 = ':2@H7,O1'
 /
 &ewald
 /

Note: ig = -1. Setting random seed to   380436 based on wallclock time in
      microseconds.

--------------------------------------------------------------------------------
   1.  RESOURCE   USE:
--------------------------------------------------------------------------------

 getting box info from netcdf restart file
 NATOM  =    1831 NTYPES =       5 NBONH =    1818 MBONA  =      13
 NTHETH =    1829 MTHETA =      14 NPHIH =      36 MPHIA  =      14
 NHPARM =       0 NPARM  =       0 NNB   =    2518 NRES   =     604
 NBONA  =      13 NTHETA =      14 NPHIA =      14 NUMBND =       6
 NUMANG =       6 NPTRA  =       2 NATYP =       6 NPHB   =       0
 IFBOX  =       1 NMXRS  =      13 IFCAP =       0 NEXTRA =       0
 NCOPY  =       0

     BOX TYPE: RECTILINEAR

--------------------------------------------------------------------------------
   2.  CONTROL  DATA  FOR  THE  RUN
--------------------------------------------------------------------------------

NIL

General flags:
     imin    =       0, nmropt  =       0

Nature and format of input:
     ntx     =       5, irest   =       1, ntrx    =       1

Nature and format of output:
     ntxo    =       2, ntpr    =    1000, ntrx    =       1, ntwr    =    5000
     iwrap   =       1, ntwx    =    1000, ntwv    =       0, ntwe    =    1000
     ioutfm  =       1, ntwprt  =       0, idecomp =       0, rbornstat=      0

Potential function:
     ntf     =       1, ntb     =       2, igb     =       0, nsnb    =      25
     ipol    =       0, gbsa    =       0, iesp    =       0
     dielc   =   1.00000, cut     =   8.00000, intdiel =   1.00000

Frozen or restrained atoms:
     ibelly  =       0, ntr     =       1
     restraint_wt =   5.00000

Molecular dynamics:
     nstlim  =     10000, nscm    =         0, nrespa  =         1
     t       =   0.00000, dt      =   0.00200, vlimit  =  20.00000

Langevin dynamics temperature regulation:
     ig      =  380436
     temp0   = 300.00000, tempi   =   0.00000, gamma_ln=   2.00000

Pressure regulation:
     ntp     =       1
     pres0   =   1.00000, comp    =  44.60000, taup    =   2.00000

SHAKE:
     ntc     =       2, jfastw  =       0
     tol     =   0.00001

Free energy options:
     icfe    =       1, ifsc    =       1, klambda =       1
     clambda =  0.5000, scalpha =  0.5000, scbeta  = 12.0000
     sceeorder =       2
     dynlmb =  0.0000 logdvdl =       0

Ewald parameters:
     verbose =       0, ew_type =       0, nbflag  =       1, use_pme =       1
     vdwmeth =       1, eedmeth =       1, netfrc  =       1
     Box X =   27.324   Box Y =   27.812   Box Z =   29.041
     Alpha =   90.000   Beta  =   90.000   Gamma =   90.000
     NFFT1 =   30       NFFT2 =   30       NFFT3 =   30
     Cutoff=    8.000   Tol   =0.100E-04
     Ewald Coefficient =  0.34864
     Interpolation order =    4

    LOADING THE CONSTRAINED ATOMS AS GROUPS

   5.  REFERENCE ATOM COORDINATES

  NIL
     Mask !:WAT & !@H=; matches    13 atoms
     TI Mask 1 :1; matches     12 atoms
     TI Mask 2 :2; matches     13 atoms
     TI region 1:    1818 atoms
     TI region 2:    1819 atoms
     SC Mask 1 :1@H7; matches      1 atoms
     SC Mask 2 :2@H7,O1; matches      2 atoms

--------------------------------------------------------------------------------
   3.  ATOMIC COORDINATES AND VELOCITIES
--------------------------------------------------------------------------------

NIL
 begin time read from input coords =    20.000 ps

     Molecule     1 is partially softcore
     Molecule     2 is partially softcore
 Number of triangulated 3-point waters found:      602
 WARNING: SHAKEn bond for atoms       12        3 is partially softcore.
 Coordinates for common atoms will be synchronized from V0.
 Consider using noshake mask or disabling SHAKE.

 Number of shake restraints removed in TI region  1 :        0
 Number of shake restraints removed in TI region  2 :        0

     Sum of charges for TI region  1 =  -0.00000066
     Forcing neutrality...

     Sum of charges for TI region  2 =  -0.00000066
     Forcing neutrality...

--------------------------------------------------------------------------------
   4.  RESULTS
 NSTEP =     1000   TIME(PS) =      22.000  TEMP(K) =   295.39  PRESS =  -819.5
 Etot   =     -4492.5722  EKtot   =      1068.9172  EPtot      =     -5561.4894
 BOND   =         2.1897  ANGLE   =         3.4420  DIHED      =         1.1407
 1-4 NB =        12.7040  1-4 EEL =         0.1858  VDWAALS    =       835.2363
 EELEC  =     -6418.0853  EHBOND  =         0.0000  RESTRAINT  =         1.6975
 EAMBER (non-restraint)  =     -5563.1869
 EKCMT  =       532.2105  VIRIAL  =       902.3801  VOLUME     =     20920.8631
                                                    Density    =         0.8671
 DV/DL  =        -2.9026
 Ewald error estimate:   0.4628E-03
 ------------------------------------------------------------------------------

      A V E R A G E S   O V E R      10 S T E P S

 NSTEP =    10000   TIME(PS) =      40.000  TEMP(K) =   302.85  PRESS =  -441.2
 Etot   =     -4588.3683  EKtot   =      1095.9105  EPtot      =     -5684.2788
 BOND   =         3.3163  ANGLE   =         2.7423  DIHED      =         2.3553
 1-4 NB =        12.8256  1-4 EEL =        -0.0054  VDWAALS    =       830.3037
 EELEC  =     -6537.8274  EHBOND  =         0.0000  RESTRAINT  =         2.0109
 EAMBER (non-restraint)  =     -5686.2897
 EKCMT  =       548.0844  VIRIAL  =       732.3481  VOLUME     =     19069.8996
                                                    Density    =         0.9528
 DV/DL  =        -0.8508
 Ewald error estimate:   0.3558E-03
 ------------------------------------------------------------------------------

      R M S  F L U C T U A T I O N S

 NSTEP =    10000   TIME(PS) =      40.000  TEMP(K) =     5.79  PRESS =   379.0
 Etot   =        61.2678  EKtot   =        20.9511  EPtot      =        62.4060
 BOND   =         1.5857  ANGLE   =         1.0896  DIHED      =         0.8279
 1-4 NB =         1.6982  1-4 EEL =         0.1190  VDWAALS    =        26.5849
 EELEC  =        64.1888  EHBOND  =         0.0000  RESTRAINT  =         1.0832
 EAMBER (non-restraint)  =        61.3227
 EKCMT  =        12.6666  VIRIAL  =       147.8295  VOLUME     =       802.4546
                                                    Density    =         0.0382
 DV/DL  =         2.8179
 Ewald error estimate:   0.2882E-03
 ------------------------------------------------------------------------------

      A V E R A G E S   O V E R      10 S T E P S

 NSTEP =    10000   TIME(PS) =      40.000  TEMP(K) =   302.94  PRESS =  -441.2
 Etot   =     -4587.1213  EKtot   =      1097.1575  EPtot      =     -5684.2788
 BOND   =         3.3163  ANGLE   =         2.7423  DIHED      =         2.3553
 1-4 NB =        12.8256  1-4 EEL =        -0.0054  VDWAALS    =       830.3037
 EELEC  =     -6537.8274  EHBOND  =         0.0000  RESTRAINT  =         2.0109
 EAMBER (non-restraint)  =     -5686.2897
 EKCMT  =       548.0844  VIRIAL  =       732.3481  VOLUME     =     19069.8996
                                                    Density    =         0.9542
 DV/DL  =        -0.8508
 Ewald error estimate:   0.3558E-03
 ------------------------------------------------------------------------------

      R M S  F L U C T U A T I O N S

 NSTEP =    10000   TIME(PS) =      40.000  TEMP(K) =     5.76  PRESS =   379.0
 Etot   =        60.9626  EKtot   =        20.8770  EPtot      =        62.4060
 BOND   =         1.5857  ANGLE   =         1.0896  DIHED      =         0.8279
 1-4 NB =         1.6982  1-4 EEL =         0.1190  VDWAALS    =        26.5849
 EELEC  =        64.1888  EHBOND  =         0.0000  RESTRAINT  =         1.0832
 EAMBER (non-restraint)  =        61.3227
 EKCMT  =        12.6666  VIRIAL  =       147.8295  VOLUME     =       802.4546
                                                    Density    =         0.0383
 DV/DL  =         2.8179
 Ewald error estimate:   0.2882E-03
 ------------------------------------------------------------------------------

      DV/DL, AVERAGES OVER      10 STEPS

 NSTEP =    10000   TIME(PS) =      40.000  TEMP(K) =     5.76  PRESS =     0.0
 Etot   =         0.0000  EKtot   =         0.0000  EPtot      =        -0.8508
 BOND   =        -0.0000  ANGLE   =        -0.0000  DIHED      =         0.0000
 1-4 NB =        -0.0000  1-4 EEL =        -7.9425  VDWAALS    =         1.0086
 EELEC  =         6.0832  EHBOND  =         0.0000  RESTRAINT  =         0.0000
 EAMBER (non-restraint)  =        -0.8508
 EKCMT  =         0.0000  VIRIAL  =         0.0000  VOLUME     =         0.0000
                                                    Density    =         0.0000
 DV/DL  =        -0.8508
 Ewald error estimate:   0.0000E+00
 ------------------------------------------------------------------------------
