-------------------------------------------------------
          Amber 18 PMEMD                              2018
          -------------------------------------------------------

  [-O]verwriting output

File Assignments:

 Here is the input file:

TI simulation
 &cntrl
   imin = 0, nstlim = 100000, irest = 1, ntx = 5, dt = 0.002,
   ntt = 3, temp0 = 300.0, gamma_ln = 2.0, ig = -1,
   ntc = 2, ntf = 1,
   ntb = 2,
   ntp = 1, pres0 = 1.0, taup = 2.0,
   ioutfm = 1, iwrap = 1,
   ntwe = 1000, ntwx = 10000, ntpr = 10000, ntwr = 20000,

   icfe = 1, clambda = 0.5, scalpha = 0.5, scbeta = 12.0,
   logdvdl = 1,
   ifmbar = 1, bar_intervall = 1000, mbar_states = 11,
   mbar_lambda = 0.0, 0.1, 0.2, 0.3, 0.4, 0.5, 0.6, 0.7, 0.8, 0.9, 1.0,
   timask1 = ':1', timask2 = ':2',
   ifsc = 0, crgmask = ':2@H6',
 /

 &ewald
 /

Note: ig = -1. Setting random seed to   760750 based on wallclock time in
      microseconds.

--------------------------------------------------------------------------------
   1.  RESOURCE   USE:
--------------------------------------------------------------------------------

 getting box info from netcdf restart file
 NATOM  =    2631 NTYPES =       4 NBONH =    2619 MBONA  =      12
 NTHETH =      24 MTHETA =      12 NPHIH =      48 MPHIA  =      12
 NHPARM =       0 NPARM  =       0 NNB   =    3580 NRES   =     871
 NBONA  =      12 NTHETA =      12 NPHIA =      12 NUMBND =       4
 NUMANG =       2 NPTRA  =       2 NATYP =       4 NPHB   =       1
 IFBOX  =       1 NMXRS  =      12 IFCAP =       0 NEXTRA =       0
 NCOPY  =       0

     BOX TYPE: RECTILINEAR

--------------------------------------------------------------------------------
   2.  CONTROL  DATA  FOR  THE  RUN
--------------------------------------------------------------------------------

default_name

General flags:
     imin    =       0, nmropt  =       0

Nature and format of input:
     ntx     =       5, irest   =       1, ntrx    =       1

Nature and format of output:
     ntxo    =       2, ntpr    =   10000, ntrx    =       1, ntwr    =   20000
     iwrap   =       1, ntwx    =   10000, ntwv    =       0, ntwe    =    1000
     ioutfm  =       1, ntwprt  =       0, idecomp =       0, rbornstat=      0

Potential function:
     ntf     =       1, ntb     =       2, igb     =       0, nsnb    =      25
     ipol    =       0, gbsa    =       0, iesp    =       0
     dielc   =   1.00000, cut     =   8.00000, intdiel =   1.00000

Frozen or restrained atoms:
     ibelly  =       0, ntr     =       0

Molecular dynamics:
     nstlim  =    100000, nscm    =      1000, nrespa  =         1
     t       =   0.00000, dt      =   0.00200, vlimit  =  20.00000

Langevin dynamics temperature regulation:
     ig      =  760750
     temp0   = 300.00000, tempi   =   0.00000, gamma_ln=   2.00000

Pressure regulation:
     ntp     =       1
     pres0   =   1.00000, comp    =  44.60000, taup    =   2.00000

SHAKE:
     ntc     =       2, jfastw  =       0
     tol     =   0.00001

Free energy options:
     icfe    =       1, ifsc    =       0, klambda =       1
     clambda =  0.5000, scalpha =  0.5000, scbeta  = 12.0000
     sceeorder =       2
     dynlmb =  0.0000 logdvdl =       1

FEP MBAR options:
     ifmbar  =       1,  bar_intervall =     1000
     mbar_states =      11

Ewald parameters:
     verbose =       0, ew_type =       0, nbflag  =       1, use_pme =       1
     vdwmeth =       1, eedmeth =       1, netfrc  =       1
     Box X =   33.673   Box Y =   34.999   Box Z =   35.659
     Alpha =   90.000   Beta  =   90.000   Gamma =   90.000
     NFFT1 =   36       NFFT2 =   36       NFFT3 =   36
     Cutoff=    8.000   Tol   =0.100E-04
     Ewald Coefficient =  0.34864
     Interpolation order =    4
     TI Mask 1 :1; matches     12 atoms
     TI Mask 2 :2; matches     12 atoms
     TI region 1:    2619 atoms
     TI region 2:    2619 atoms
Removing charge of       0.1305 from atom      24
Total charge of   0.13052100 removed from       1 atoms

    MBAR - lambda values considered:
      11 total:  0.0000 0.1000 0.2000 0.3000 0.4000 0.5000 0.6000 0.7000 0.8000 0.9000 1.0000
    Extra energies will be computed    100 times.
     Checking for mismatched coordinates.

--------------------------------------------------------------------------------
   3.  ATOMIC COORDINATES AND VELOCITIES
--------------------------------------------------------------------------------

default_name
 begin time read from input coords =    20.000 ps

 Number of triangulated 3-point waters found:      869

     Sum of charges for TI region  1 =   0.00000000
     Forcing neutrality...

     Sum of charges for TI region  2 =  -0.13052100
     Assuming uniform neutralizing plasma

--------------------------------------------------------------------------------
   4.  RESULTS
 NSTEP =    10000   TIME(PS) =      40.000  TEMP(K) =   299.08  PRESS =  -404.6
 Etot   =     -6573.1422  EKtot   =      1558.3319  EPtot      =     -8131.4741
 BOND   =         1.7226  ANGLE   =         1.8629  DIHED      =         2.2170
 1-4 NB =         3.7701  1-4 EEL =        -0.7258  VDWAALS    =      1255.2501
 EELEC  =     -9395.5710  EHBOND  =         0.0000  RESTRAINT  =         0.0000
 EKCMT  =       775.5165  VIRIAL  =      1060.5034  VOLUME     =     32621.7645
                                                    Density    =         0.8009
 DV/DL  =        -7.9695
 Ewald error estimate:   0.4361E-03
 ------------------------------------------------------------------------------

      A V E R A G E S   O V E R      10 S T E P S

 NSTEP =   100000   TIME(PS) =     220.000  TEMP(K) =   299.58  PRESS =  -111.6
 Etot   =     -6693.1264  EKtot   =      1560.9190  EPtot      =     -8254.0454
 BOND   =         1.6552  ANGLE   =         3.0236  DIHED      =         2.4795
 1-4 NB =         3.4717  1-4 EEL =        -0.6895  VDWAALS    =      1219.5064
 EELEC  =     -9483.4923  EHBOND  =         0.0000  RESTRAINT  =         0.0000
 EKCMT  =       781.7106  VIRIAL  =       851.6392  VOLUME     =     27221.5805
                                                    Density    =         0.9634
 DV/DL  =        -6.3285
 Ewald error estimate:   0.2010E-03
 ------------------------------------------------------------------------------

      R M S  F L U C T U A T I O N S

 NSTEP =   100000   TIME(PS) =     220.000  TEMP(K) =     7.49  PRESS =   399.5
 Etot   =        76.6815  EKtot   =        39.0318  EPtot      =        61.7048
 BOND   =         1.5093  ANGLE   =         1.1942  DIHED      =         0.8633
 1-4 NB =         0.2729  1-4 EEL =         0.0288  VDWAALS    =        44.4133
 EELEC  =        80.5251  EHBOND  =         0.0000  RESTRAINT  =         0.0000
 EKCMT  =        24.3732  VIRIAL  =       240.5926  VOLUME     =      1802.6153
                                                    Density    =         0.0543
 DV/DL  =         1.3405
 Ewald error estimate:   0.1528E-03
 ------------------------------------------------------------------------------

      A V E R A G E S   O V E R      10 S T E P S

 NSTEP =   100000   TIME(PS) =     220.000  TEMP(K) =   299.58  PRESS =  -111.6
 Etot   =     -6693.1264  EKtot   =      1560.9190  EPtot      =     -8254.0454
 BOND   =         1.6552  ANGLE   =         3.0236  DIHED      =         2.4795
 1-4 NB =         3.4717  1-4 EEL =        -0.6895  VDWAALS    =      1219.5064
 EELEC  =     -9483.4923  EHBOND  =         0.0000  RESTRAINT  =         0.0000
 EKCMT  =       781.7106  VIRIAL  =       851.6392  VOLUME     =     27221.5805
                                                    Density    =         0.9634
 DV/DL  =        -6.3285
 Ewald error estimate:   0.2010E-03
 ------------------------------------------------------------------------------

      R M S  F L U C T U A T I O N S

 NSTEP =   100000   TIME(PS) =     220.000  TEMP(K) =     7.49  PRESS =   399.5
 Etot   =        76.6815  EKtot   =        39.0318  EPtot      =        61.7048
 BOND   =         1.5093  ANGLE   =         1.1942  DIHED      =         0.8633
 1-4 NB =         0.2729  1-4 EEL =         0.0288  VDWAALS    =        44.4133
 EELEC  =        80.5251  EHBOND  =         0.0000  RESTRAINT  =         0.0000
 EKCMT  =        24.3732  VIRIAL  =       240.5926  VOLUME     =      1802.6153
                                                    Density    =         0.0543
 DV/DL  =         1.3405
 Ewald error estimate:   0.1528E-03
 ------------------------------------------------------------------------------

      DV/DL, AVERAGES OVER      10 STEPS

 NSTEP =   100000   TIME(PS) =     220.000  TEMP(K) =     7.49  PRESS =     0.0
 Etot   =         0.0000  EKtot   =         0.0000  EPtot      =        -6.3285
 BOND   =        -0.0000  ANGLE   =        -0.0000  DIHED      =         0.0000
 1-4 NB =        -0.0000  1-4 EEL =        -1.0492  VDWAALS    =         0.0000
 EELEC  =        -5.2793  EHBOND  =         0.0000  RESTRAINT  =         0.0000
 EKCMT  =         0.0000  VIRIAL  =         0.0000  VOLUME     =         0.0000
                                                    Density    =         0.0000
 DV/DL  =        -6.3285
 Ewald error estimate:   0.0000E+00
 ------------------------------------------------------------------------------
