-------------------------------------------------------
          Amber 16 PMEMD                              2016
          -------------------------------------------------------

  [-O]verwriting output

File Assignments:

 Here is the input file:

TI simulation
 &cntrl
   imin = 0, nstlim = 100000, irest = 1, ntx = 5, dt = 0.002,
   ntt = 3, temp0 = 300.0, gamma_ln = 2.0, ig = -1,
   vlimit = 20,
   ntc = 2, ntf = 1,
   ntb = 2,
   ntp = 1, pres0 = 1.0, taup = 2.0,
   ioutfm = 1, iwrap = 1,
   ntwe = 1000, ntwx = 10000, ntpr = 10000, ntwr = 20000,

   icfe = 1, clambda = 0.500, scalpha = 0.5, scbeta = 12.0,
   logdvdl = 1,
   ifmbar = 1, bar_intervall = 1000, mbar_states = 11,
   mbar_lambda = 0.0,0.1,0.2,0.3,0.4,0.5,0.6,0.7,0.8,0.9,1.0,
   timask1 = ':1', timask2 = ':2',
   ifsc = 0, crgmask = ':2@H7,O1'
 /

 &ewald
 /

Note: ig = -1. Setting random seed to   914187 based on wallclock time in
      microseconds.

--------------------------------------------------------------------------------
   1.  RESOURCE   USE:
--------------------------------------------------------------------------------

 getting box info from netcdf restart file
 NATOM  =    1830 NTYPES =       4 NBONH =    1818 MBONA  =      12
 NTHETH =    1830 MTHETA =      12 NPHIH =      36 MPHIA  =      12
 NHPARM =       0 NPARM  =       0 NNB   =    2514 NRES   =     604
 NBONA  =      12 NTHETA =      12 NPHIA =      12 NUMBND =       4
 NUMANG =       4 NPTRA  =       1 NATYP =       4 NPHB   =       0
 IFBOX  =       1 NMXRS  =      12 IFCAP =       0 NEXTRA =       0
 NCOPY  =       0

     BOX TYPE: RECTILINEAR

--------------------------------------------------------------------------------
   2.  CONTROL  DATA  FOR  THE  RUN
--------------------------------------------------------------------------------

NIL

General flags:
     imin    =       0, nmropt  =       0

Nature and format of input:
     ntx     =       5, irest   =       1, ntrx    =       1

Nature and format of output:
     ntxo    =       2, ntpr    =   10000, ntrx    =       1, ntwr    =   20000
     iwrap   =       1, ntwx    =   10000, ntwv    =       0, ntwe    =    1000
     ioutfm  =       1, ntwprt  =       0, idecomp =       0, rbornstat=      0

Potential function:
     ntf     =       1, ntb     =       2, igb     =       0, nsnb    =      25
     ipol    =       0, gbsa    =       0, iesp    =       0
     dielc   =   1.00000, cut     =   8.00000, intdiel =   1.00000

Frozen or restrained atoms:
     ibelly  =       0, ntr     =       0

Molecular dynamics:
     nstlim  =    100000, nscm    =      1000, nrespa  =         1
     t       =   0.00000, dt      =   0.00200, vlimit  =  20.00000

Langevin dynamics temperature regulation:
     ig      =  914187
     temp0   = 300.00000, tempi   =   0.00000, gamma_ln=   2.00000

Pressure regulation:
     ntp     =       1
     pres0   =   1.00000, comp    =  44.60000, taup    =   2.00000

SHAKE:
     ntc     =       2, jfastw  =       0
     tol     =   0.00001

Free energy options:
     icfe    =       1, ifsc    =       0, klambda =       1
     clambda =  0.5000, scalpha =  0.5000, scbeta  = 12.0000
     sceeorder =       2
     dynlmb =  0.0000 logdvdl =       1

FEP MBAR options:
     ifmbar  =       1,  bar_intervall =     1000
     mbar_states =      11

Ewald parameters:
     verbose =       0, ew_type =       0, nbflag  =       1, use_pme =       1
     vdwmeth =       1, eedmeth =       1, netfrc  =       1
     Box X =   29.219   Box Y =   29.414   Box Z =   30.661
     Alpha =   90.000   Beta  =   90.000   Gamma =   90.000
     NFFT1 =   32       NFFT2 =   32       NFFT3 =   32
     Cutoff=    8.000   Tol   =0.100E-04
     Ewald Coefficient =  0.34864
     Interpolation order =    4
     TI Mask 1 :1; matches     12 atoms
     TI Mask 2 :2; matches     12 atoms
     TI region 1:    1818 atoms
     TI region 2:    1818 atoms
Removing charge of       0.1300 from atom      24
Total charge of   0.13000000 removed from       1 atoms

    MBAR - lambda values considered:
      11 total:  0.0000 0.1000 0.2000 0.3000 0.4000 0.5000 0.6000 0.7000 0.8000 0.9000 1.0000
    Extra energies will be computed    100 times.
     Checking for mismatched coordinates.

--------------------------------------------------------------------------------
   3.  ATOMIC COORDINATES AND VELOCITIES
--------------------------------------------------------------------------------

NIL
 begin time read from input coords =    20.000 ps

 Number of triangulated 3-point waters found:      602

     Sum of charges for TI region  1 =   0.00000132
     Forcing neutrality...

     Sum of charges for TI region  2 =  -0.12999868
     Assuming uniform neutralizing plasma

--------------------------------------------------------------------------------
   4.  RESULTS
 NSTEP =    10000   TIME(PS) =      40.000  TEMP(K) =   299.04  PRESS = -1577.7
 Etot   =     -4498.4468  EKtot   =      1082.1316  EPtot      =     -5580.5784
 BOND   =         2.7255  ANGLE   =         3.6781  DIHED      =         2.0116
 1-4 NB =        12.0463  1-4 EEL =         4.5343  VDWAALS    =       812.9423
 EELEC  =     -6418.5165  EHBOND  =         0.0000  RESTRAINT  =         0.0000
 EKCMT  =         1.3402  VIRIAL  =       682.2249  VOLUME     =     19988.2974
                                                    Density    =         0.9075
 DV/DL  =        -5.7238
 ------------------------------------------------------------------------------

      A V E R A G E S   O V E R      10 S T E P S

 NSTEP =   100000   TIME(PS) =     220.000  TEMP(K) =   301.40  PRESS =  -527.4
 Etot   =     -4625.2825  EKtot   =      1090.6608  EPtot      =     -5715.9434
 BOND   =         2.5747  ANGLE   =         4.2140  DIHED      =         2.6608
 1-4 NB =        13.2553  1-4 EEL =         4.5542  VDWAALS    =       837.1937
 EELEC  =     -6580.3961  EHBOND  =         0.0000  RESTRAINT  =         0.0000
 EKCMT  =         2.6072  VIRIAL  =       217.2157  VOLUME     =     18624.3340
                                                    Density    =         0.9746
 DV/DL  =        -6.2430
 ------------------------------------------------------------------------------

      R M S  F L U C T U A T I O N S

 NSTEP =   100000   TIME(PS) =     220.000  TEMP(K) =     3.40  PRESS =  1316.3
 Etot   =        53.6340  EKtot   =        12.2903  EPtot      =        53.2811
 BOND   =         0.6790  ANGLE   =         0.8043  DIHED      =         1.4710
 1-4 NB =         1.8272  1-4 EEL =         0.0619  VDWAALS    =        31.7283
 EELEC  =        64.0993  EHBOND  =         0.0000  RESTRAINT  =         0.0000
 EKCMT  =         2.3168  VIRIAL  =       530.2930  VOLUME     =       468.4176
                                                    Density    =         0.0231
 DV/DL  =         0.8695
 ------------------------------------------------------------------------------

      A V E R A G E S   O V E R      10 S T E P S

 NSTEP =   100000   TIME(PS) =     220.000  TEMP(K) =   301.40  PRESS =  -527.4
 Etot   =     -4625.2825  EKtot   =      1090.6608  EPtot      =     -5715.9434
 BOND   =         2.5747  ANGLE   =         4.2140  DIHED      =         2.6608
 1-4 NB =        13.2553  1-4 EEL =         4.5542  VDWAALS    =       837.1937
 EELEC  =     -6580.3961  EHBOND  =         0.0000  RESTRAINT  =         0.0000
 EKCMT  =         2.6072  VIRIAL  =       217.2157  VOLUME     =     18624.3340
                                                    Density    =         0.9746
 DV/DL  =        -6.2430
 ------------------------------------------------------------------------------

      R M S  F L U C T U A T I O N S

 NSTEP =   100000   TIME(PS) =     220.000  TEMP(K) =     3.40  PRESS =  1316.3
 Etot   =        53.6340  EKtot   =        12.2903  EPtot      =        53.2811
 BOND   =         0.6790  ANGLE   =         0.8043  DIHED      =         1.4710
 1-4 NB =         1.8272  1-4 EEL =         0.0619  VDWAALS    =        31.7283
 EELEC  =        64.0993  EHBOND  =         0.0000  RESTRAINT  =         0.0000
 EKCMT  =         2.3168  VIRIAL  =       530.2930  VOLUME     =       468.4176
                                                    Density    =         0.0231
 DV/DL  =         0.8695
 ------------------------------------------------------------------------------

      DV/DL, AVERAGES OVER      10 STEPS

 NSTEP =   100000   TIME(PS) =     220.000  TEMP(K) =     3.40  PRESS =     0.0
 Etot   =         0.0000  EKtot   =         0.0000  EPtot      =        -6.2430
 BOND   =         0.0000  ANGLE   =         0.0000  DIHED      =         0.0000
 1-4 NB =         0.0000  1-4 EEL =        -0.9926  VDWAALS    =         0.0000
 EELEC  =        -5.2504  EHBOND  =         0.0000  RESTRAINT  =         0.0000
 EKCMT  =         0.0000  VIRIAL  =         0.0000  VOLUME     =         0.0000
                                                    Density    =         0.0000
 DV/DL  =        -6.2430
 ------------------------------------------------------------------------------
