-------------------------------------------------------
          Amber 18 PMEMD                              2018
          -------------------------------------------------------

  [-O]verwriting output

File Assignments:

 Here is the input file:

TI simulation
 &cntrl
   imin = 0, nstlim = 100000, irest = 1, ntx = 5, dt = 0.002,
   ntt = 3, temp0 = 300.0, gamma_ln = 2.0, ig = -1,
   ntc = 2, ntf = 1,
   ntb = 2,
   ntp = 1, pres0 = 1.0, taup = 2.0,
   ioutfm = 1, iwrap = 1,
   ntwe = 1000, ntwx = 10000, ntpr = 10000, ntwr = 20000,

   icfe = 1, clambda = 0.4, scalpha = 0.5, scbeta = 12.0,
   logdvdl = 1,
   ifmbar = 1, bar_intervall = 1000, mbar_states = 11,
   mbar_lambda = 0.0, 0.1, 0.2, 0.3, 0.4, 0.5, 0.6, 0.7, 0.8, 0.9, 1.0,
   timask1 = ':1', timask2 = ':2',
   ifsc=1, scmask1=':1@H6', scmask2=':2@O1,H6'
 /

 &ewald
 /

Note: ig = -1. Setting random seed to   310216 based on wallclock time in
      microseconds and disabling the synchronization of random numbers
      between tasks to improve performance.

--------------------------------------------------------------------------------
   1.  RESOURCE   USE:
--------------------------------------------------------------------------------

 getting box info from netcdf restart file
 NATOM  =    2632 NTYPES =       6 NBONH =    2619 MBONA  =      13
 NTHETH =      23 MTHETA =      14 NPHIH =      47 MPHIA  =      14
 NHPARM =       0 NPARM  =       0 NNB   =    3584 NRES   =     871
 NBONA  =      13 NTHETA =      14 NPHIA =      14 NUMBND =       6
 NUMANG =       4 NPTRA  =       3 NATYP =       6 NPHB   =       1
 IFBOX  =       1 NMXRS  =      13 IFCAP =       0 NEXTRA =       0
 NCOPY  =       0

     BOX TYPE: RECTILINEAR

--------------------------------------------------------------------------------
   2.  CONTROL  DATA  FOR  THE  RUN
--------------------------------------------------------------------------------

default_name

General flags:
     imin    =       0, nmropt  =       0

Nature and format of input:
     ntx     =       5, irest   =       1, ntrx    =       1

Nature and format of output:
     ntxo    =       2, ntpr    =   10000, ntrx    =       1, ntwr    =   20000
     iwrap   =       1, ntwx    =   10000, ntwv    =       0, ntwe    =    1000
     ioutfm  =       1, ntwprt  =       0, idecomp =       0, rbornstat=      0

Potential function:
     ntf     =       1, ntb     =       2, igb     =       0, nsnb    =      25
     ipol    =       0, gbsa    =       0, iesp    =       0
     dielc   =   1.00000, cut     =   8.00000, intdiel =   1.00000

Frozen or restrained atoms:
     ibelly  =       0, ntr     =       0

Molecular dynamics:
     nstlim  =    100000, nscm    =      1000, nrespa  =         1
     t       =   0.00000, dt      =   0.00200, vlimit  =  20.00000

Langevin dynamics temperature regulation:
     ig      =  310216
     temp0   = 300.00000, tempi   =   0.00000, gamma_ln=   2.00000

Pressure regulation:
     ntp     =       1
     pres0   =   1.00000, comp    =  44.60000, taup    =   2.00000

SHAKE:
     ntc     =       2, jfastw  =       0
     tol     =   0.00001

Free energy options:
     icfe    =       1, ifsc    =       1, klambda =       1
     clambda =  0.4000, scalpha =  0.5000, scbeta  = 12.0000
     sceeorder =       2
     dynlmb =  0.0000 logdvdl =       1

FEP MBAR options:
     ifmbar  =       1,  bar_intervall =     1000
     mbar_states =      11

Ewald parameters:
     verbose =       0, ew_type =       0, nbflag  =       1, use_pme =       1
     vdwmeth =       1, eedmeth =       1, netfrc  =       1
     Box X =   29.912   Box Y =   30.951   Box Z =   31.726
     Alpha =   90.000   Beta  =   90.000   Gamma =   90.000
     NFFT1 =   30       NFFT2 =   32       NFFT3 =   32
     Cutoff=    8.000   Tol   =0.100E-04
     Ewald Coefficient =  0.34864
     Interpolation order =    4

     TI Mask 1 :1; matches     12 atoms
     TI Mask 2 :2; matches     13 atoms
     TI region 1:    2619 atoms
     TI region 2:    2620 atoms
     SC Mask 1 :1@H6; matches      1 atoms
     SC Mask 2 :2@O1,H6; matches      2 atoms

    MBAR - lambda values considered:
      11 total:  0.0000 0.1000 0.2000 0.3000 0.4000 0.5000 0.6000 0.7000 0.8000 0.9000 1.0000
    Extra energies will be computed    100 times.

--------------------------------------------------------------------------------
   3.  ATOMIC COORDINATES AND VELOCITIES
--------------------------------------------------------------------------------

default_name
 begin time read from input coords =    20.000 ps

     Molecule     1 is partially softcore
     Molecule     2 is partially softcore
 Number of triangulated 3-point waters found:      869
 WARNING: SHAKEn bond for atoms       11       12 is partially softcore.
 Coordinates for common atoms will be synchronized from V0.
 Consider using noshake mask or disabling SHAKE.

 Number of shake restraints removed in TI region  1 :        0
 Number of shake restraints removed in TI region  2 :        0

     Sum of charges for TI region  1 =   0.00000000
     Forcing neutrality...

     Sum of charges for TI region  2 =   0.00000100
     Forcing neutrality...

--------------------------------------------------------------------------------
   4.  RESULTS
 NSTEP =    10000   TIME(PS) =      40.000  TEMP(K) =   294.17  PRESS =    80.9
 Etot   =     -6773.4714  EKtot   =      1532.7630  EPtot      =     -8306.2344
 BOND   =         0.6697  ANGLE   =         1.4347  DIHED      =         2.0302
 1-4 NB =         3.8614  1-4 EEL =        -4.3611  VDWAALS    =      1256.9775
 EELEC  =     -9566.8468  EHBOND  =         0.0000  RESTRAINT  =         0.0000
 EKCMT  =       755.7156  VIRIAL  =       709.2596  VOLUME     =     26593.7310
                                                    Density    =         0.9825
 DV/DL  =         2.2757
 Ewald error estimate:   0.2238E-03
 ------------------------------------------------------------------------------

      A V E R A G E S   O V E R      10 S T E P S

 NSTEP =   100000   TIME(PS) =     220.000  TEMP(K) =   297.98  PRESS =   -14.1
 Etot   =     -6736.2733  EKtot   =      1552.6096  EPtot      =     -8288.8829
 BOND   =         1.8135  ANGLE   =         1.9017  DIHED      =         2.3760
 1-4 NB =         3.6052  1-4 EEL =        -4.4021  VDWAALS    =      1227.3224
 EELEC  =     -9521.4996  EHBOND  =         0.0000  RESTRAINT  =         0.0000
 EKCMT  =       781.2375  VIRIAL  =       788.8511  VOLUME     =     26565.2047
                                                    Density    =         0.9835
 DV/DL  =         3.5014
 Ewald error estimate:   0.2466E-03
 ------------------------------------------------------------------------------

      R M S  F L U C T U A T I O N S

 NSTEP =   100000   TIME(PS) =     220.000  TEMP(K) =     6.14  PRESS =   473.4
 Etot   =        72.2394  EKtot   =        31.9853  EPtot      =        59.6858
 BOND   =         1.2591  ANGLE   =         0.7759  DIHED      =         0.9473
 1-4 NB =         0.3946  1-4 EEL =         0.1205  VDWAALS    =        42.5012
 EELEC  =        55.1966  EHBOND  =         0.0000  RESTRAINT  =         0.0000
 EKCMT  =        15.4250  VIRIAL  =       269.6305  VOLUME     =        94.1426
                                                    Density    =         0.0035
 DV/DL  =         2.7189
 Ewald error estimate:   0.1504E-03
 ------------------------------------------------------------------------------

      A V E R A G E S   O V E R      10 S T E P S

 NSTEP =   100000   TIME(PS) =     220.000  TEMP(K) =   297.93  PRESS =   -14.1
 Etot   =     -6735.6527  EKtot   =      1553.2302  EPtot      =     -8288.8829
 BOND   =         1.8135  ANGLE   =         1.9017  DIHED      =         2.3760
 1-4 NB =         3.6052  1-4 EEL =        -4.4021  VDWAALS    =      1227.3224
 EELEC  =     -9521.4996  EHBOND  =         0.0000  RESTRAINT  =         0.0000
 EKCMT  =       781.2375  VIRIAL  =       788.8511  VOLUME     =     26565.2047
                                                    Density    =         0.9845
 DV/DL  =         3.5014
 Ewald error estimate:   0.2466E-03
 ------------------------------------------------------------------------------

      R M S  F L U C T U A T I O N S

 NSTEP =   100000   TIME(PS) =     220.000  TEMP(K) =     6.17  PRESS =   473.4
 Etot   =        72.3134  EKtot   =        32.1631  EPtot      =        59.6858
 BOND   =         1.2591  ANGLE   =         0.7759  DIHED      =         0.9473
 1-4 NB =         0.3946  1-4 EEL =         0.1205  VDWAALS    =        42.5012
 EELEC  =        55.1966  EHBOND  =         0.0000  RESTRAINT  =         0.0000
 EKCMT  =        15.4250  VIRIAL  =       269.6305  VOLUME     =        94.1426
                                                    Density    =         0.0035
 DV/DL  =         2.7189
 Ewald error estimate:   0.1504E-03
 ------------------------------------------------------------------------------

      DV/DL, AVERAGES OVER      10 STEPS

 NSTEP =   100000   TIME(PS) =     220.000  TEMP(K) =     6.17  PRESS =     0.0
 Etot   =         0.0000  EKtot   =         0.0000  EPtot      =         3.5014
 BOND   =         0.0000  ANGLE   =         0.0000  DIHED      =         0.0000
 1-4 NB =        -0.0000  1-4 EEL =        -7.9883  VDWAALS    =         0.1757
 EELEC  =        11.3139  EHBOND  =         0.0000  RESTRAINT  =         0.0000
 EKCMT  =         0.0000  VIRIAL  =         0.0000  VOLUME     =         0.0000
                                                    Density    =         0.0000
 DV/DL  =         3.5014
 Ewald error estimate:   0.0000E+00
 ------------------------------------------------------------------------------
