-------------------------------------------------------
          Amber 16 PMEMD                              2016
          -------------------------------------------------------

  [-O]verwriting output

File Assignments:

 Here is the input file:

TI simulation
 &cntrl
   imin = 0, nstlim = 100000, irest = 1, ntx = 5, dt = 0.002,
   ntt = 3, temp0 = 300.0, gamma_ln = 2.0, ig = -1,
   vlimit = 20,
   ntc = 2, ntf = 1,
   ntb = 2,
   ntp = 1, pres0 = 1.0, taup = 2.0,
   ioutfm = 1, iwrap = 1,
   ntwe = 1000, ntwx = 10000, ntpr = 10000, ntwr = 20000,

   icfe = 1, clambda = 0.100, scalpha = 0.5, scbeta = 12.0,
   logdvdl = 1,
   ifmbar = 1, bar_intervall = 1000, mbar_states = 11,
   mbar_lambda = 0.0,0.1,0.2,0.3,0.4,0.5,0.6,0.7,0.8,0.9,1.0,
   timask1 = ':1', timask2 = ':2',
   ifsc = 0, crgmask = ':1@H7'
 /

 &ewald
 /

Note: ig = -1. Setting random seed to   122010 based on wallclock time in
      microseconds.

--------------------------------------------------------------------------------
   1.  RESOURCE   USE:
--------------------------------------------------------------------------------

 getting box info from netcdf restart file
 NATOM  =   24926 NTYPES =      16 NBONH =   23618 MBONA  =    1324
 NTHETH =   25284 MTHETA =    1781 NPHIH =    6059 MPHIA  =    5537
 NHPARM =       0 NPARM  =       0 NNB   =   44146 NRES   =    7599
 NBONA  =    1324 NTHETA =    1781 NPHIA =    5537 NUMBND =      69
 NUMANG =     155 NPTRA  =     186 NATYP =      38 NPHB   =       0
 IFBOX  =       1 NMXRS  =      24 IFCAP =       0 NEXTRA =       0
 NCOPY  =       0

     BOX TYPE: RECTILINEAR

--------------------------------------------------------------------------------
   2.  CONTROL  DATA  FOR  THE  RUN
--------------------------------------------------------------------------------

NIL

General flags:
     imin    =       0, nmropt  =       0

Nature and format of input:
     ntx     =       5, irest   =       1, ntrx    =       1

Nature and format of output:
     ntxo    =       2, ntpr    =   10000, ntrx    =       1, ntwr    =   20000
     iwrap   =       1, ntwx    =   10000, ntwv    =       0, ntwe    =    1000
     ioutfm  =       1, ntwprt  =       0, idecomp =       0, rbornstat=      0

Potential function:
     ntf     =       1, ntb     =       2, igb     =       0, nsnb    =      25
     ipol    =       0, gbsa    =       0, iesp    =       0
     dielc   =   1.00000, cut     =   8.00000, intdiel =   1.00000

Frozen or restrained atoms:
     ibelly  =       0, ntr     =       0

Molecular dynamics:
     nstlim  =    100000, nscm    =      1000, nrespa  =         1
     t       =   0.00000, dt      =   0.00200, vlimit  =  20.00000

Langevin dynamics temperature regulation:
     ig      =  122010
     temp0   = 300.00000, tempi   =   0.00000, gamma_ln=   2.00000

Pressure regulation:
     ntp     =       1
     pres0   =   1.00000, comp    =  44.60000, taup    =   2.00000

SHAKE:
     ntc     =       2, jfastw  =       0
     tol     =   0.00001

Free energy options:
     icfe    =       1, ifsc    =       0, klambda =       1
     clambda =  0.1000, scalpha =  0.5000, scbeta  = 12.0000
     sceeorder =       2
     dynlmb =  0.0000 logdvdl =       1

FEP MBAR options:
     ifmbar  =       1,  bar_intervall =     1000
     mbar_states =      11

Ewald parameters:
     verbose =       0, ew_type =       0, nbflag  =       1, use_pme =       1
     vdwmeth =       1, eedmeth =       1, netfrc  =       1
     Box X =   61.526   Box Y =   65.482   Box Z =   73.445
     Alpha =   90.000   Beta  =   90.000   Gamma =   90.000
     NFFT1 =   64       NFFT2 =   64       NFFT3 =   80
     Cutoff=    8.000   Tol   =0.100E-04
     Ewald Coefficient =  0.34864
     Interpolation order =    4
     TI Mask 1 :1; matches     13 atoms
     TI Mask 2 :2; matches     13 atoms
     TI region 1:   24913 atoms
     TI region 2:   24913 atoms
Removing charge of       0.4181 from atom      13
Total charge of   0.41807699 removed from       1 atoms

    MBAR - lambda values considered:
      11 total:  0.0000 0.1000 0.2000 0.3000 0.4000 0.5000 0.6000 0.7000 0.8000 0.9000 1.0000
    Extra energies will be computed    100 times.
     Checking for mismatched coordinates.

--------------------------------------------------------------------------------
   3.  ATOMIC COORDINATES AND VELOCITIES
--------------------------------------------------------------------------------

NIL
 begin time read from input coords =    20.000 ps

 Number of triangulated 3-point waters found:     7431

     Sum of charges for TI region  1 =  -0.41765970
     Assuming uniform neutralizing plasma

     Sum of charges for TI region  2 =   0.00041729
     Forcing neutrality...

--------------------------------------------------------------------------------
   4.  RESULTS
 NSTEP =    10000   TIME(PS) =      40.000  TEMP(K) =   300.24  PRESS =   454.4
 Etot   =    -59398.5688  EKtot   =     15251.8947  EPtot      =    -74650.4635
 BOND   =       512.9562  ANGLE   =      1260.0021  DIHED      =      2054.1263
 1-4 NB =       638.6479  1-4 EEL =      5966.7608  VDWAALS    =      8799.2773
 EELEC  =    -93882.2340  EHBOND  =         0.0000  RESTRAINT  =         0.0000
 EKCMT  =         3.7483  VIRIAL  =     -2437.4524  VOLUME     =    248795.4390
                                                    Density    =         1.0175
 DV/DL  =        10.3950
 ------------------------------------------------------------------------------

      A V E R A G E S   O V E R      10 S T E P S

 NSTEP =   100000   TIME(PS) =     220.000  TEMP(K) =   300.26  PRESS =    66.6
 Etot   =    -59467.8335  EKtot   =     15253.1253  EPtot      =    -74720.9588
 BOND   =       508.5582  ANGLE   =      1248.9358  DIHED      =      2052.8118
 1-4 NB =       657.4850  1-4 EEL =      6007.4398  VDWAALS    =      8859.7258
 EELEC  =    -94055.9152  EHBOND  =         0.0000  RESTRAINT  =         0.0000
 EKCMT  =         3.0240  VIRIAL  =      -352.1250  VOLUME     =    248180.0256
                                                    Density    =         1.0201
 DV/DL  =        11.6859
 ------------------------------------------------------------------------------

      R M S  F L U C T U A T I O N S

 NSTEP =   100000   TIME(PS) =     220.000  TEMP(K) =     1.49  PRESS =   272.3
 Etot   =       175.6850  EKtot   =        75.7979  EPtot      =       151.7060
 BOND   =         8.6095  ANGLE   =        20.6551  DIHED      =        14.8616
 1-4 NB =        11.4061  1-4 EEL =        28.9597  VDWAALS    =       158.1100
 EELEC  =       261.1150  EHBOND  =         0.0000  RESTRAINT  =         0.0000
 EKCMT  =         1.3592  VIRIAL  =      1462.7115  VOLUME     =       651.0930
                                                    Density    =         0.0027
 DV/DL  =         2.6319
 ------------------------------------------------------------------------------

      A V E R A G E S   O V E R      10 S T E P S

 NSTEP =   100000   TIME(PS) =     220.000  TEMP(K) =   300.26  PRESS =    66.6
 Etot   =    -59467.8335  EKtot   =     15253.1253  EPtot      =    -74720.9588
 BOND   =       508.5582  ANGLE   =      1248.9358  DIHED      =      2052.8118
 1-4 NB =       657.4850  1-4 EEL =      6007.4398  VDWAALS    =      8859.7258
 EELEC  =    -94055.9152  EHBOND  =         0.0000  RESTRAINT  =         0.0000
 EKCMT  =         3.0240  VIRIAL  =      -352.1250  VOLUME     =    248180.0256
                                                    Density    =         1.0201
 DV/DL  =        11.6859
 ------------------------------------------------------------------------------

      R M S  F L U C T U A T I O N S

 NSTEP =   100000   TIME(PS) =     220.000  TEMP(K) =     1.49  PRESS =   272.3
 Etot   =       175.6850  EKtot   =        75.7979  EPtot      =       151.7060
 BOND   =         8.6095  ANGLE   =        20.6551  DIHED      =        14.8616
 1-4 NB =        11.4061  1-4 EEL =        28.9597  VDWAALS    =       158.1100
 EELEC  =       261.1150  EHBOND  =         0.0000  RESTRAINT  =         0.0000
 EKCMT  =         1.3592  VIRIAL  =      1462.7115  VOLUME     =       651.0930
                                                    Density    =         0.0027
 DV/DL  =         2.6319
 ------------------------------------------------------------------------------

      DV/DL, AVERAGES OVER      10 STEPS

 NSTEP =   100000   TIME(PS) =     220.000  TEMP(K) =     1.49  PRESS =     0.0
 Etot   =         0.0000  EKtot   =         0.0000  EPtot      =        11.6859
 BOND   =         0.0000  ANGLE   =         0.0000  DIHED      =         0.0000
 1-4 NB =         0.0000  1-4 EEL =       -21.9827  VDWAALS    =         0.0000
 EELEC  =        33.6686  EHBOND  =         0.0000  RESTRAINT  =         0.0000
 EKCMT  =         0.0000  VIRIAL  =         0.0000  VOLUME     =         0.0000
                                                    Density    =         0.0000
 DV/DL  =        11.6859
 ------------------------------------------------------------------------------
