-------------------------------------------------------
          Amber 18 PMEMD                              2018
          -------------------------------------------------------

  [-O]verwriting output

File Assignments:

 Here is the input file:

TI simulation
 &cntrl
   imin = 0, nstlim = 100000, irest = 1, ntx = 5, dt = 0.002,
   ntt = 3, temp0 = 300.0, gamma_ln = 2.0, ig = -1,
   ntc = 2, ntf = 1,
   ntb = 2,
   ntp = 1, pres0 = 1.0, taup = 2.0,
   ioutfm = 1, iwrap = 1,
   ntwe = 1000, ntwx = 10000, ntpr = 10000, ntwr = 20000,

   icfe = 1, clambda = 1.0, scalpha = 0.5, scbeta = 12.0,
   logdvdl = 1,
   ifmbar = 1, bar_intervall = 1000, mbar_states = 11,
   mbar_lambda = 0.0, 0.1, 0.2, 0.3, 0.4, 0.5, 0.6, 0.7, 0.8, 0.9, 1.0,
   timask1 = ':1', timask2 = ':2',
   ifsc=1, scmask1=':1@H6', scmask2=':2@O1,H6'
 /

 &ewald
 /

Note: ig = -1. Setting random seed to   452439 based on wallclock time in
      microseconds and disabling the synchronization of random numbers
      between tasks to improve performance.

--------------------------------------------------------------------------------
   1.  RESOURCE   USE:
--------------------------------------------------------------------------------

 getting box info from netcdf restart file
 NATOM  =   30553 NTYPES =      17 NBONH =   29246 MBONA  =    1323
 NTHETH =    2992 MTHETA =    1779 NPHIH =    6075 MPHIA  =    5535
 NHPARM =       0 NPARM  =       0 NNB   =   51644 NRES   =    9475
 NBONA  =    1323 NTHETA =    1779 NPHIA =    5535 NUMBND =      69
 NUMANG =     153 NPTRA  =     180 NATYP =      38 NPHB   =       1
 IFBOX  =       1 NMXRS  =      24 IFCAP =       0 NEXTRA =       0
 NCOPY  =       0

     BOX TYPE: RECTILINEAR

--------------------------------------------------------------------------------
   2.  CONTROL  DATA  FOR  THE  RUN
--------------------------------------------------------------------------------

default_name

General flags:
     imin    =       0, nmropt  =       0

Nature and format of input:
     ntx     =       5, irest   =       1, ntrx    =       1

Nature and format of output:
     ntxo    =       2, ntpr    =   10000, ntrx    =       1, ntwr    =   20000
     iwrap   =       1, ntwx    =   10000, ntwv    =       0, ntwe    =    1000
     ioutfm  =       1, ntwprt  =       0, idecomp =       0, rbornstat=      0

Potential function:
     ntf     =       1, ntb     =       2, igb     =       0, nsnb    =      25
     ipol    =       0, gbsa    =       0, iesp    =       0
     dielc   =   1.00000, cut     =   8.00000, intdiel =   1.00000

Frozen or restrained atoms:
     ibelly  =       0, ntr     =       0

Molecular dynamics:
     nstlim  =    100000, nscm    =      1000, nrespa  =         1
     t       =   0.00000, dt      =   0.00200, vlimit  =  20.00000

Langevin dynamics temperature regulation:
     ig      =  452439
     temp0   = 300.00000, tempi   =   0.00000, gamma_ln=   2.00000

Pressure regulation:
     ntp     =       1
     pres0   =   1.00000, comp    =  44.60000, taup    =   2.00000

SHAKE:
     ntc     =       2, jfastw  =       0
     tol     =   0.00001

Free energy options:
     icfe    =       1, ifsc    =       1, klambda =       1
     clambda =  1.0000, scalpha =  0.5000, scbeta  = 12.0000
     sceeorder =       2
     dynlmb =  0.0000 logdvdl =       1

FEP MBAR options:
     ifmbar  =       1,  bar_intervall =     1000
     mbar_states =      11

Ewald parameters:
     verbose =       0, ew_type =       0, nbflag  =       1, use_pme =       1
     vdwmeth =       1, eedmeth =       1, netfrc  =       1
     Box X =   62.489   Box Y =   66.628   Box Z =   74.803
     Alpha =   90.000   Beta  =   90.000   Gamma =   90.000
     NFFT1 =   64       NFFT2 =   72       NFFT3 =   75
     Cutoff=    8.000   Tol   =0.100E-04
     Ewald Coefficient =  0.34864
     Interpolation order =    4

     TI Mask 1 :1; matches     12 atoms
     TI Mask 2 :2; matches     13 atoms
     TI region 1:   30540 atoms
     TI region 2:   30541 atoms
     SC Mask 1 :1@H6; matches      1 atoms
     SC Mask 2 :2@O1,H6; matches      2 atoms

    MBAR - lambda values considered:
      11 total:  0.0000 0.1000 0.2000 0.3000 0.4000 0.5000 0.6000 0.7000 0.8000 0.9000 1.0000
    Extra energies will be computed    100 times.

--------------------------------------------------------------------------------
   3.  ATOMIC COORDINATES AND VELOCITIES
--------------------------------------------------------------------------------

default_name
 begin time read from input coords =    20.000 ps

     Molecule     1 is partially softcore
     Molecule     2 is partially softcore
 Number of triangulated 3-point waters found:     9307
 WARNING: SHAKEn bond for atoms       12       11 is partially softcore.
 Coordinates for common atoms will be synchronized from V0.
 Consider using noshake mask or disabling SHAKE.

 Number of shake restraints removed in TI region  1 :        0
 Number of shake restraints removed in TI region  2 :        0

     Sum of charges for TI region  1 =   0.00039993
     Forcing neutrality...

     Sum of charges for TI region  2 =   0.00040093
     Forcing neutrality...

--------------------------------------------------------------------------------
   4.  RESULTS
 NSTEP =    10000   TIME(PS) =      40.000  TEMP(K) =   298.34  PRESS =    52.4
 Etot   =    -74203.0348  EKtot   =     18491.4543  EPtot      =    -92694.4891
 BOND   =       473.1476  ANGLE   =      1279.4222  DIHED      =      2061.1512
 1-4 NB =       608.0703  1-4 EEL =      5966.6227  VDWAALS    =     11531.1657
 EELEC  =   -114614.0689  EHBOND  =         0.0000  RESTRAINT  =         0.0000
 EKCMT  =      8297.1006  VIRIAL  =      7950.3543  VOLUME     =    306597.1628
                                                    Density    =         1.0087
 DV/DL  =         0.0037
 Ewald error estimate:   0.7057E-04
 ------------------------------------------------------------------------------

      A V E R A G E S   O V E R      10 S T E P S

 NSTEP =   100000   TIME(PS) =     220.000  TEMP(K) =   299.75  PRESS =     3.4
 Etot   =    -74083.0950  EKtot   =     18578.8074  EPtot      =    -92661.9024
 BOND   =       491.9474  ANGLE   =      1247.5029  DIHED      =      2052.3328
 1-4 NB =       611.3974  1-4 EEL =      5934.2658  VDWAALS    =     11549.9808
 EELEC  =   -114549.3294  EHBOND  =         0.0000  RESTRAINT  =         0.0000
 EKCMT  =      8348.9942  VIRIAL  =      8326.4375  VOLUME     =    306380.2381
                                                    Density    =         1.0094
 DV/DL  =         2.7969
 Ewald error estimate:   0.4480E-04
 ------------------------------------------------------------------------------

      R M S  F L U C T U A T I O N S

 NSTEP =   100000   TIME(PS) =     220.000  TEMP(K) =     1.21  PRESS =   152.2
 Etot   =       151.0320  EKtot   =        75.2143  EPtot      =       117.9518
 BOND   =        18.0799  ANGLE   =        32.8933  DIHED      =        16.7200
 1-4 NB =        12.5600  1-4 EEL =        28.4363  VDWAALS    =       197.0063
 EELEC  =       260.6111  EHBOND  =         0.0000  RESTRAINT  =         0.0000
 EKCMT  =        38.7045  VIRIAL  =      1016.3087  VOLUME     =       220.9395
                                                    Density    =         0.0007
 DV/DL  =         5.1709
 Ewald error estimate:   0.2448E-04
 ------------------------------------------------------------------------------

      A V E R A G E S   O V E R      10 S T E P S

 NSTEP =   100000   TIME(PS) =     220.000  TEMP(K) =   299.75  PRESS =     3.4
 Etot   =    -74082.0441  EKtot   =     18579.8583  EPtot      =    -92661.9024
 BOND   =       491.9474  ANGLE   =      1247.5029  DIHED      =      2052.3328
 1-4 NB =       611.3974  1-4 EEL =      5934.2658  VDWAALS    =     11549.9808
 EELEC  =   -114549.3294  EHBOND  =         0.0000  RESTRAINT  =         0.0000
 EKCMT  =      8348.9942  VIRIAL  =      8326.4375  VOLUME     =    306380.2381
                                                    Density    =         1.0095
 DV/DL  =         2.7969
 Ewald error estimate:   0.4480E-04
 ------------------------------------------------------------------------------

      R M S  F L U C T U A T I O N S

 NSTEP =   100000   TIME(PS) =     220.000  TEMP(K) =     1.21  PRESS =   152.2
 Etot   =       150.6172  EKtot   =        75.0611  EPtot      =       117.9518
 BOND   =        18.0799  ANGLE   =        32.8933  DIHED      =        16.7200
 1-4 NB =        12.5600  1-4 EEL =        28.4363  VDWAALS    =       197.0063
 EELEC  =       260.6111  EHBOND  =         0.0000  RESTRAINT  =         0.0000
 EKCMT  =        38.7045  VIRIAL  =      1016.3087  VOLUME     =       220.9395
                                                    Density    =         0.0007
 DV/DL  =         5.1709
 Ewald error estimate:   0.2448E-04
 ------------------------------------------------------------------------------

      DV/DL, AVERAGES OVER      10 STEPS

 NSTEP =   100000   TIME(PS) =     220.000  TEMP(K) =     1.21  PRESS =     0.0
 Etot   =         0.0000  EKtot   =         0.0000  EPtot      =         2.7969
 BOND   =         0.0000  ANGLE   =        -0.0000  DIHED      =         0.0000
 1-4 NB =         0.0000  1-4 EEL =        -8.0463  VDWAALS    =         2.0327
 EELEC  =         8.8105  EHBOND  =         0.0000  RESTRAINT  =         0.0000
 EKCMT  =         0.0000  VIRIAL  =         0.0000  VOLUME     =         0.0000
                                                    Density    =         0.0000
 DV/DL  =         2.7969
 Ewald error estimate:   0.0000E+00
 ------------------------------------------------------------------------------
