-------------------------------------------------------
          Amber 16 PMEMD                              2016
          -------------------------------------------------------

  [-O]verwriting output

File Assignments:

 Here is the input file:

TI simulation
 &cntrl
   imin = 0, nstlim = 100000, irest = 1, ntx = 5, dt = 0.002,
   ntt = 3, temp0 = 300.0, gamma_ln = 2.0, ig = -1,
   vlimit = 20,
   ntc = 2, ntf = 1,
   ntb = 2,
   ntp = 1, pres0 = 1.0, taup = 2.0,
   ioutfm = 1, iwrap = 1,
   ntwe = 1000, ntwx = 10000, ntpr = 10000, ntwr = 20000,

   icfe = 1, clambda = 0.800, scalpha = 0.5, scbeta = 12.0,
   logdvdl = 1,
   ifmbar = 1, bar_intervall = 1000, mbar_states = 11,
   mbar_lambda = 0.0,0.1,0.2,0.3,0.4,0.5,0.6,0.7,0.8,0.9,1.0,
   timask1 = ':1', timask2 = ':2',
   ifsc = 0, crgmask = ':1@H7'
 /

 &ewald
 /

Note: ig = -1. Setting random seed to   346504 based on wallclock time in
      microseconds.

--------------------------------------------------------------------------------
   1.  RESOURCE   USE:
--------------------------------------------------------------------------------

 getting box info from netcdf restart file
 NATOM  =    1832 NTYPES =       5 NBONH =    1818 MBONA  =      14
 NTHETH =    1828 MTHETA =      16 NPHIH =      36 MPHIA  =      16
 NHPARM =       0 NPARM  =       0 NNB   =    2522 NRES   =     604
 NBONA  =      14 NTHETA =      16 NPHIA =      16 NUMBND =       6
 NUMANG =       6 NPTRA  =       2 NATYP =       6 NPHB   =       0
 IFBOX  =       1 NMXRS  =      13 IFCAP =       0 NEXTRA =       0
 NCOPY  =       0

     BOX TYPE: RECTILINEAR

--------------------------------------------------------------------------------
   2.  CONTROL  DATA  FOR  THE  RUN
--------------------------------------------------------------------------------

NIL

General flags:
     imin    =       0, nmropt  =       0

Nature and format of input:
     ntx     =       5, irest   =       1, ntrx    =       1

Nature and format of output:
     ntxo    =       2, ntpr    =   10000, ntrx    =       1, ntwr    =   20000
     iwrap   =       1, ntwx    =   10000, ntwv    =       0, ntwe    =    1000
     ioutfm  =       1, ntwprt  =       0, idecomp =       0, rbornstat=      0

Potential function:
     ntf     =       1, ntb     =       2, igb     =       0, nsnb    =      25
     ipol    =       0, gbsa    =       0, iesp    =       0
     dielc   =   1.00000, cut     =   8.00000, intdiel =   1.00000

Frozen or restrained atoms:
     ibelly  =       0, ntr     =       0

Molecular dynamics:
     nstlim  =    100000, nscm    =      1000, nrespa  =         1
     t       =   0.00000, dt      =   0.00200, vlimit  =  20.00000

Langevin dynamics temperature regulation:
     ig      =  346504
     temp0   = 300.00000, tempi   =   0.00000, gamma_ln=   2.00000

Pressure regulation:
     ntp     =       1
     pres0   =   1.00000, comp    =  44.60000, taup    =   2.00000

SHAKE:
     ntc     =       2, jfastw  =       0
     tol     =   0.00001

Free energy options:
     icfe    =       1, ifsc    =       0, klambda =       1
     clambda =  0.8000, scalpha =  0.5000, scbeta  = 12.0000
     sceeorder =       2
     dynlmb =  0.0000 logdvdl =       1

FEP MBAR options:
     ifmbar  =       1,  bar_intervall =     1000
     mbar_states =      11

Ewald parameters:
     verbose =       0, ew_type =       0, nbflag  =       1, use_pme =       1
     vdwmeth =       1, eedmeth =       1, netfrc  =       1
     Box X =   29.219   Box Y =   29.414   Box Z =   30.661
     Alpha =   90.000   Beta  =   90.000   Gamma =   90.000
     NFFT1 =   32       NFFT2 =   32       NFFT3 =   32
     Cutoff=    8.000   Tol   =0.100E-04
     Ewald Coefficient =  0.34864
     Interpolation order =    4
     TI Mask 1 :1; matches     13 atoms
     TI Mask 2 :2; matches     13 atoms
     TI region 1:    1819 atoms
     TI region 2:    1819 atoms
Removing charge of       0.4181 from atom      13
Total charge of   0.41807699 removed from       1 atoms

    MBAR - lambda values considered:
      11 total:  0.0000 0.1000 0.2000 0.3000 0.4000 0.5000 0.6000 0.7000 0.8000 0.9000 1.0000
    Extra energies will be computed    100 times.
     Checking for mismatched coordinates.

--------------------------------------------------------------------------------
   3.  ATOMIC COORDINATES AND VELOCITIES
--------------------------------------------------------------------------------

NIL
 begin time read from input coords =    20.000 ps

 Number of triangulated 3-point waters found:      602

     Sum of charges for TI region  1 =  -0.41807467
     Assuming uniform neutralizing plasma

     Sum of charges for TI region  2 =   0.00000232
     Forcing neutrality...

--------------------------------------------------------------------------------
   4.  RESULTS
 NSTEP =    10000   TIME(PS) =      40.000  TEMP(K) =   309.26  PRESS =  -440.0
 Etot   =     -4529.1919  EKtot   =      1120.0191  EPtot      =     -5649.2109
 BOND   =         2.7371  ANGLE   =         1.8478  DIHED      =         1.2674
 1-4 NB =        13.8742  1-4 EEL =       -30.4623  VDWAALS    =       798.9406
 EELEC  =     -6437.4157  EHBOND  =         0.0000  RESTRAINT  =         0.0000
 EKCMT  =         1.8305  VIRIAL  =       185.0095  VOLUME     =     19283.6187
                                                    Density    =         0.9421
 DV/DL  =         7.2292
 ------------------------------------------------------------------------------

      A V E R A G E S   O V E R      10 S T E P S

 NSTEP =   100000   TIME(PS) =     220.000  TEMP(K) =   302.32  PRESS =  -227.6
 Etot   =     -4616.1955  EKtot   =      1094.9084  EPtot      =     -5711.1039
 BOND   =         1.9625  ANGLE   =         3.2039  DIHED      =         3.4058
 1-4 NB =        14.6893  1-4 EEL =       -30.6425  VDWAALS    =       840.6497
 EELEC  =     -6544.3726  EHBOND  =         0.0000  RESTRAINT  =         0.0000
 EKCMT  =         3.7207  VIRIAL  =        96.0836  VOLUME     =     18691.1318
                                                    Density    =         0.9720
 DV/DL  =         5.1062
 ------------------------------------------------------------------------------

      R M S  F L U C T U A T I O N S

 NSTEP =   100000   TIME(PS) =     220.000  TEMP(K) =     9.29  PRESS =  1195.6
 Etot   =        59.6017  EKtot   =        33.6302  EPtot      =        43.0347
 BOND   =         0.8512  ANGLE   =         0.9905  DIHED      =         1.6614
 1-4 NB =         1.4533  1-4 EEL =         0.7727  VDWAALS    =        29.4101
 EELEC  =        47.3268  EHBOND  =         0.0000  RESTRAINT  =         0.0000
 EKCMT  =         2.5813  VIRIAL  =       481.8699  VOLUME     =       223.0244
                                                    Density    =         0.0114
 DV/DL  =         1.6078
 ------------------------------------------------------------------------------

      A V E R A G E S   O V E R      10 S T E P S

 NSTEP =   100000   TIME(PS) =     220.000  TEMP(K) =   302.32  PRESS =  -227.6
 Etot   =     -4616.1955  EKtot   =      1094.9084  EPtot      =     -5711.1039
 BOND   =         1.9625  ANGLE   =         3.2039  DIHED      =         3.4058
 1-4 NB =        14.6893  1-4 EEL =       -30.6425  VDWAALS    =       840.6497
 EELEC  =     -6544.3726  EHBOND  =         0.0000  RESTRAINT  =         0.0000
 EKCMT  =         3.7207  VIRIAL  =        96.0836  VOLUME     =     18691.1318
                                                    Density    =         0.9720
 DV/DL  =         5.1062
 ------------------------------------------------------------------------------

      R M S  F L U C T U A T I O N S

 NSTEP =   100000   TIME(PS) =     220.000  TEMP(K) =     9.29  PRESS =  1195.6
 Etot   =        59.6017  EKtot   =        33.6302  EPtot      =        43.0347
 BOND   =         0.8512  ANGLE   =         0.9905  DIHED      =         1.6614
 1-4 NB =         1.4533  1-4 EEL =         0.7727  VDWAALS    =        29.4101
 EELEC  =        47.3268  EHBOND  =         0.0000  RESTRAINT  =         0.0000
 EKCMT  =         2.5813  VIRIAL  =       481.8699  VOLUME     =       223.0244
                                                    Density    =         0.0114
 DV/DL  =         1.6078
 ------------------------------------------------------------------------------

      DV/DL, AVERAGES OVER      10 STEPS

 NSTEP =   100000   TIME(PS) =     220.000  TEMP(K) =     9.29  PRESS =     0.0
 Etot   =         0.0000  EKtot   =         0.0000  EPtot      =         5.1062
 BOND   =         0.0000  ANGLE   =         0.0000  DIHED      =         0.0000
 1-4 NB =         0.0000  1-4 EEL =       -21.2942  VDWAALS    =         0.0000
 EELEC  =        26.4004  EHBOND  =         0.0000  RESTRAINT  =         0.0000
 EKCMT  =         0.0000  VIRIAL  =         0.0000  VOLUME     =         0.0000
                                                    Density    =         0.0000
 DV/DL  =         5.1062
 ------------------------------------------------------------------------------
