-------------------------------------------------------
          Amber 18 PMEMD                              2018
          -------------------------------------------------------

  [-O]verwriting output

File Assignments:

 Here is the input file:

TI simulation
 &cntrl
   imin = 0, nstlim = 100000, irest = 1, ntx = 5, dt = 0.002,
   ntt = 3, temp0 = 300.0, gamma_ln = 2.0, ig = -1,
   ntc = 2, ntf = 1,
   ntb = 2,
   ntp = 1, pres0 = 1.0, taup = 2.0,
   ioutfm = 1, iwrap = 1,
   ntwe = 1000, ntwx = 10000, ntpr = 10000, ntwr = 20000,

   icfe = 1, clambda = 0.2, scalpha = 0.5, scbeta = 12.0,
   logdvdl = 1,
   ifmbar = 1, bar_intervall = 1000, mbar_states = 11,
   mbar_lambda = 0.0, 0.1, 0.2, 0.3, 0.4, 0.5, 0.6, 0.7, 0.8, 0.9, 1.0,
   timask1 = ':1', timask2 = ':2',
   ifsc = 0, crgmask = ':1@O1,H6',
 /

 &ewald
 /

Note: ig = -1. Setting random seed to   628696 based on wallclock time in
      microseconds and disabling the synchronization of random numbers
      between tasks to improve performance.

--------------------------------------------------------------------------------
   1.  RESOURCE   USE:
--------------------------------------------------------------------------------

 getting box info from netcdf restart file
 NATOM  =   30554 NTYPES =      17 NBONH =   29246 MBONA  =    1324
 NTHETH =    2991 MTHETA =    1781 NPHIH =    6074 MPHIA  =    5537
 NHPARM =       0 NPARM  =       0 NNB   =   51648 NRES   =    9475
 NBONA  =    1324 NTHETA =    1781 NPHIA =    5537 NUMBND =      69
 NUMANG =     153 NPTRA  =     180 NATYP =      38 NPHB   =       1
 IFBOX  =       1 NMXRS  =      24 IFCAP =       0 NEXTRA =       0
 NCOPY  =       0

     BOX TYPE: RECTILINEAR

--------------------------------------------------------------------------------
   2.  CONTROL  DATA  FOR  THE  RUN
--------------------------------------------------------------------------------

default_name

General flags:
     imin    =       0, nmropt  =       0

Nature and format of input:
     ntx     =       5, irest   =       1, ntrx    =       1

Nature and format of output:
     ntxo    =       2, ntpr    =   10000, ntrx    =       1, ntwr    =   20000
     iwrap   =       1, ntwx    =   10000, ntwv    =       0, ntwe    =    1000
     ioutfm  =       1, ntwprt  =       0, idecomp =       0, rbornstat=      0

Potential function:
     ntf     =       1, ntb     =       2, igb     =       0, nsnb    =      25
     ipol    =       0, gbsa    =       0, iesp    =       0
     dielc   =   1.00000, cut     =   8.00000, intdiel =   1.00000

Frozen or restrained atoms:
     ibelly  =       0, ntr     =       0

Molecular dynamics:
     nstlim  =    100000, nscm    =      1000, nrespa  =         1
     t       =   0.00000, dt      =   0.00200, vlimit  =  20.00000

Langevin dynamics temperature regulation:
     ig      =  628696
     temp0   = 300.00000, tempi   =   0.00000, gamma_ln=   2.00000

Pressure regulation:
     ntp     =       1
     pres0   =   1.00000, comp    =  44.60000, taup    =   2.00000

SHAKE:
     ntc     =       2, jfastw  =       0
     tol     =   0.00001

Free energy options:
     icfe    =       1, ifsc    =       0, klambda =       1
     clambda =  0.2000, scalpha =  0.5000, scbeta  = 12.0000
     sceeorder =       2
     dynlmb =  0.0000 logdvdl =       1

FEP MBAR options:
     ifmbar  =       1,  bar_intervall =     1000
     mbar_states =      11

Ewald parameters:
     verbose =       0, ew_type =       0, nbflag  =       1, use_pme =       1
     vdwmeth =       1, eedmeth =       1, netfrc  =       1
     Box X =   68.526   Box Y =   72.839   Box Z =   81.366
     Alpha =   90.000   Beta  =   90.000   Gamma =   90.000
     NFFT1 =   72       NFFT2 =   75       NFFT3 =   90
     Cutoff=    8.000   Tol   =0.100E-04
     Ewald Coefficient =  0.34864
     Interpolation order =    4

     TI Mask 1 :1; matches     13 atoms
     TI Mask 2 :2; matches     13 atoms
     TI region 1:   30541 atoms
     TI region 2:   30541 atoms
Removing charge of      -0.5539 from atom      12
Removing charge of       0.3791 from atom      13
Total charge of  -0.17486000 removed from       2 atoms

    MBAR - lambda values considered:
      11 total:  0.0000 0.1000 0.2000 0.3000 0.4000 0.5000 0.6000 0.7000 0.8000 0.9000 1.0000
    Extra energies will be computed    100 times.
     Checking for mismatched coordinates.

--------------------------------------------------------------------------------
   3.  ATOMIC COORDINATES AND VELOCITIES
--------------------------------------------------------------------------------

default_name
 begin time read from input coords =    20.000 ps

 Number of triangulated 3-point waters found:     9307

     Sum of charges for TI region  1 =   0.17526093
     Assuming uniform neutralizing plasma

     Sum of charges for TI region  2 =   0.00040093
     Forcing neutrality...

--------------------------------------------------------------------------------
   4.  RESULTS
 NSTEP =    10000   TIME(PS) =      40.000  TEMP(K) =   301.61  PRESS =  -294.0
 Etot   =    -72396.3108  EKtot   =     18694.5940  EPtot      =    -91090.9048
 BOND   =       514.0292  ANGLE   =      1254.3823  DIHED      =      2061.0437
 1-4 NB =       607.5767  1-4 EEL =      5912.8940  VDWAALS    =     11291.7092
 EELEC  =   -112732.5398  EHBOND  =         0.0000  RESTRAINT  =         0.0000
 EKCMT  =      8370.5560  VIRIAL  =     10660.1519  VOLUME     =    360683.3455
                                                    Density    =         0.8575
 DV/DL  =       -31.0731
 Ewald error estimate:   0.1667E-03
 ------------------------------------------------------------------------------

      A V E R A G E S   O V E R      10 S T E P S

 NSTEP =   100000   TIME(PS) =     220.000  TEMP(K) =   299.88  PRESS =   -25.6
 Etot   =    -73832.7416  EKtot   =     18587.4459  EPtot      =    -92420.1875
 BOND   =       492.2112  ANGLE   =      1258.5801  DIHED      =      2051.0050
 1-4 NB =       610.0637  1-4 EEL =      5930.4750  VDWAALS    =     11523.5638
 EELEC  =   -114286.0862  EHBOND  =         0.0000  RESTRAINT  =         0.0000
 EKCMT  =      8342.5021  VIRIAL  =      8561.3292  VOLUME     =    313180.4616
                                                    Density    =         0.9900
 DV/DL  =       -32.9486
 Ewald error estimate:   0.7691E-04
 ------------------------------------------------------------------------------

      R M S  F L U C T U A T I O N S

 NSTEP =   100000   TIME(PS) =     220.000  TEMP(K) =     1.89  PRESS =   180.2
 Etot   =       532.1958  EKtot   =       117.2299  EPtot      =       488.6798
 BOND   =        21.7385  ANGLE   =        32.3146  DIHED      =        19.4925
 1-4 NB =        10.1737  1-4 EEL =        23.5719  VDWAALS    =       222.4586
 EELEC  =       658.3577  EHBOND  =         0.0000  RESTRAINT  =         0.0000
 EKCMT  =        70.3273  VIRIAL  =      1257.2723  VOLUME     =     16554.2475
                                                    Density    =         0.0467
 DV/DL  =         1.1358
 Ewald error estimate:   0.5399E-04
 ------------------------------------------------------------------------------

      A V E R A G E S   O V E R      10 S T E P S

 NSTEP =   100000   TIME(PS) =     220.000  TEMP(K) =   299.88  PRESS =   -25.6
 Etot   =    -73832.7416  EKtot   =     18587.4459  EPtot      =    -92420.1875
 BOND   =       492.2112  ANGLE   =      1258.5801  DIHED      =      2051.0050
 1-4 NB =       610.0637  1-4 EEL =      5930.4750  VDWAALS    =     11523.5638
 EELEC  =   -114286.0862  EHBOND  =         0.0000  RESTRAINT  =         0.0000
 EKCMT  =      8342.5021  VIRIAL  =      8561.3292  VOLUME     =    313180.4616
                                                    Density    =         0.9900
 DV/DL  =       -32.9486
 Ewald error estimate:   0.7691E-04
 ------------------------------------------------------------------------------

      R M S  F L U C T U A T I O N S

 NSTEP =   100000   TIME(PS) =     220.000  TEMP(K) =     1.89  PRESS =   180.2
 Etot   =       532.1958  EKtot   =       117.2299  EPtot      =       488.6798
 BOND   =        21.7385  ANGLE   =        32.3146  DIHED      =        19.4925
 1-4 NB =        10.1737  1-4 EEL =        23.5719  VDWAALS    =       222.4586
 EELEC  =       658.3577  EHBOND  =         0.0000  RESTRAINT  =         0.0000
 EKCMT  =        70.3273  VIRIAL  =      1257.2723  VOLUME     =     16554.2475
                                                    Density    =         0.0467
 DV/DL  =         1.1358
 Ewald error estimate:   0.5399E-04
 ------------------------------------------------------------------------------

      DV/DL, AVERAGES OVER      10 STEPS

 NSTEP =   100000   TIME(PS) =     220.000  TEMP(K) =     1.89  PRESS =     0.0
 Etot   =         0.0000  EKtot   =         0.0000  EPtot      =       -32.9486
 BOND   =        -0.0000  ANGLE   =        -0.0000  DIHED      =         0.0000
 1-4 NB =        -0.0000  1-4 EEL =       -38.0975  VDWAALS    =         0.0000
 EELEC  =         5.1489  EHBOND  =         0.0000  RESTRAINT  =         0.0000
 EKCMT  =         0.0000  VIRIAL  =         0.0000  VOLUME     =         0.0000
                                                    Density    =         0.0000
 DV/DL  =       -32.9486
 Ewald error estimate:   0.0000E+00
 ------------------------------------------------------------------------------
