-------------------------------------------------------
          Amber 18 PMEMD                              2018
          -------------------------------------------------------

  [-O]verwriting output

File Assignments:

 Here is the input file:

TI simulation
 &cntrl
   imin = 0, nstlim = 100000, irest = 1, ntx = 5, dt = 0.002,
   ntt = 3, temp0 = 300.0, gamma_ln = 2.0, ig = -1,
   ntc = 2, ntf = 1,
   ntb = 2,
   ntp = 1, pres0 = 1.0, taup = 2.0,
   ioutfm = 1, iwrap = 1,
   ntwe = 1000, ntwx = 10000, ntpr = 10000, ntwr = 20000,

   icfe = 1, clambda = 1.0, scalpha = 0.5, scbeta = 12.0,
   logdvdl = 1,
   ifmbar = 1, bar_intervall = 1000, mbar_states = 11,
   mbar_lambda = 0.0, 0.1, 0.2, 0.3, 0.4, 0.5, 0.6, 0.7, 0.8, 0.9, 1.0,
   timask1 = ':1', timask2 = ':2',
   ifsc=1, scmask1=':1@H6', scmask2=':2@O1,H6'
 /

 &ewald
 /

Note: ig = -1. Setting random seed to   461560 based on wallclock time in
      microseconds and disabling the synchronization of random numbers
      between tasks to improve performance.

--------------------------------------------------------------------------------
   1.  RESOURCE   USE:
--------------------------------------------------------------------------------

 getting box info from netcdf restart file
 NATOM  =    2632 NTYPES =       6 NBONH =    2619 MBONA  =      13
 NTHETH =      23 MTHETA =      14 NPHIH =      47 MPHIA  =      14
 NHPARM =       0 NPARM  =       0 NNB   =    3584 NRES   =     871
 NBONA  =      13 NTHETA =      14 NPHIA =      14 NUMBND =       6
 NUMANG =       4 NPTRA  =       3 NATYP =       6 NPHB   =       1
 IFBOX  =       1 NMXRS  =      13 IFCAP =       0 NEXTRA =       0
 NCOPY  =       0

     BOX TYPE: RECTILINEAR

--------------------------------------------------------------------------------
   2.  CONTROL  DATA  FOR  THE  RUN
--------------------------------------------------------------------------------

default_name

General flags:
     imin    =       0, nmropt  =       0

Nature and format of input:
     ntx     =       5, irest   =       1, ntrx    =       1

Nature and format of output:
     ntxo    =       2, ntpr    =   10000, ntrx    =       1, ntwr    =   20000
     iwrap   =       1, ntwx    =   10000, ntwv    =       0, ntwe    =    1000
     ioutfm  =       1, ntwprt  =       0, idecomp =       0, rbornstat=      0

Potential function:
     ntf     =       1, ntb     =       2, igb     =       0, nsnb    =      25
     ipol    =       0, gbsa    =       0, iesp    =       0
     dielc   =   1.00000, cut     =   8.00000, intdiel =   1.00000

Frozen or restrained atoms:
     ibelly  =       0, ntr     =       0

Molecular dynamics:
     nstlim  =    100000, nscm    =      1000, nrespa  =         1
     t       =   0.00000, dt      =   0.00200, vlimit  =  20.00000

Langevin dynamics temperature regulation:
     ig      =  461560
     temp0   = 300.00000, tempi   =   0.00000, gamma_ln=   2.00000

Pressure regulation:
     ntp     =       1
     pres0   =   1.00000, comp    =  44.60000, taup    =   2.00000

SHAKE:
     ntc     =       2, jfastw  =       0
     tol     =   0.00001

Free energy options:
     icfe    =       1, ifsc    =       1, klambda =       1
     clambda =  1.0000, scalpha =  0.5000, scbeta  = 12.0000
     sceeorder =       2
     dynlmb =  0.0000 logdvdl =       1

FEP MBAR options:
     ifmbar  =       1,  bar_intervall =     1000
     mbar_states =      11

Ewald parameters:
     verbose =       0, ew_type =       0, nbflag  =       1, use_pme =       1
     vdwmeth =       1, eedmeth =       1, netfrc  =       1
     Box X =   29.912   Box Y =   30.951   Box Z =   31.726
     Alpha =   90.000   Beta  =   90.000   Gamma =   90.000
     NFFT1 =   30       NFFT2 =   32       NFFT3 =   32
     Cutoff=    8.000   Tol   =0.100E-04
     Ewald Coefficient =  0.34864
     Interpolation order =    4

     TI Mask 1 :1; matches     12 atoms
     TI Mask 2 :2; matches     13 atoms
     TI region 1:    2619 atoms
     TI region 2:    2620 atoms
     SC Mask 1 :1@H6; matches      1 atoms
     SC Mask 2 :2@O1,H6; matches      2 atoms

    MBAR - lambda values considered:
      11 total:  0.0000 0.1000 0.2000 0.3000 0.4000 0.5000 0.6000 0.7000 0.8000 0.9000 1.0000
    Extra energies will be computed    100 times.

--------------------------------------------------------------------------------
   3.  ATOMIC COORDINATES AND VELOCITIES
--------------------------------------------------------------------------------

default_name
 begin time read from input coords =    20.000 ps

     Molecule     1 is partially softcore
     Molecule     2 is partially softcore
 Number of triangulated 3-point waters found:      869
 WARNING: SHAKEn bond for atoms       11       12 is partially softcore.
 Coordinates for common atoms will be synchronized from V0.
 Consider using noshake mask or disabling SHAKE.

 Number of shake restraints removed in TI region  1 :        0
 Number of shake restraints removed in TI region  2 :        0

     Sum of charges for TI region  1 =   0.00000000
     Forcing neutrality...

     Sum of charges for TI region  2 =   0.00000100
     Forcing neutrality...

--------------------------------------------------------------------------------
   4.  RESULTS
 NSTEP =    10000   TIME(PS) =      40.000  TEMP(K) =   302.21  PRESS =   -67.5
 Etot   =     -6637.1638  EKtot   =      1574.6144  EPtot      =     -8211.7782
 BOND   =         0.4883  ANGLE   =         0.8351  DIHED      =         1.3717
 1-4 NB =         3.9404  1-4 EEL =        -9.2541  VDWAALS    =      1180.0664
 EELEC  =     -9389.2260  EHBOND  =         0.0000  RESTRAINT  =         0.0000
 EKCMT  =       790.1904  VIRIAL  =       828.7373  VOLUME     =     26452.9841
                                                    Density    =         0.9877
 DV/DL  =       -15.0693
 Ewald error estimate:   0.4416E-04
 ------------------------------------------------------------------------------

      A V E R A G E S   O V E R      10 S T E P S

 NSTEP =   100000   TIME(PS) =     220.000  TEMP(K) =   301.78  PRESS =    73.8
 Etot   =     -6697.3794  EKtot   =      1572.4114  EPtot      =     -8269.7908
 BOND   =         2.3120  ANGLE   =         1.9714  DIHED      =         2.3777
 1-4 NB =         3.5327  1-4 EEL =        -9.3195  VDWAALS    =      1237.3452
 EELEC  =     -9508.0102  EHBOND  =         0.0000  RESTRAINT  =         0.0000
 EKCMT  =       790.4184  VIRIAL  =       747.5956  VOLUME     =     26631.4065
                                                    Density    =         0.9811
 DV/DL  =       -19.9216
 Ewald error estimate:   0.1848E-03
 ------------------------------------------------------------------------------

      R M S  F L U C T U A T I O N S

 NSTEP =   100000   TIME(PS) =     220.000  TEMP(K) =     5.21  PRESS =   293.9
 Etot   =        39.3728  EKtot   =        27.1344  EPtot      =        47.3244
 BOND   =         1.2881  ANGLE   =         0.9483  DIHED      =         1.5429
 1-4 NB =         0.4284  1-4 EEL =         0.2312  VDWAALS    =        48.2300
 EELEC  =        89.4917  EHBOND  =         0.0000  RESTRAINT  =         0.0000
 EKCMT  =        14.7700  VIRIAL  =       162.8918  VOLUME     =       124.5363
                                                    Density    =         0.0046
 DV/DL  =         6.2499
 Ewald error estimate:   0.1082E-03
 ------------------------------------------------------------------------------

      A V E R A G E S   O V E R      10 S T E P S

 NSTEP =   100000   TIME(PS) =     220.000  TEMP(K) =   301.81  PRESS =    73.8
 Etot   =     -6696.3268  EKtot   =      1573.4640  EPtot      =     -8269.7908
 BOND   =         2.3120  ANGLE   =         1.9714  DIHED      =         2.3777
 1-4 NB =         3.5327  1-4 EEL =        -9.3195  VDWAALS    =      1237.3452
 EELEC  =     -9508.0102  EHBOND  =         0.0000  RESTRAINT  =         0.0000
 EKCMT  =       790.4184  VIRIAL  =       747.5956  VOLUME     =     26631.4065
                                                    Density    =         0.9821
 DV/DL  =       -19.9216
 Ewald error estimate:   0.1848E-03
 ------------------------------------------------------------------------------

      R M S  F L U C T U A T I O N S

 NSTEP =   100000   TIME(PS) =     220.000  TEMP(K) =     5.28  PRESS =   293.9
 Etot   =        39.5588  EKtot   =        27.5366  EPtot      =        47.3244
 BOND   =         1.2881  ANGLE   =         0.9483  DIHED      =         1.5429
 1-4 NB =         0.4284  1-4 EEL =         0.2312  VDWAALS    =        48.2300
 EELEC  =        89.4917  EHBOND  =         0.0000  RESTRAINT  =         0.0000
 EKCMT  =        14.7700  VIRIAL  =       162.8918  VOLUME     =       124.5363
                                                    Density    =         0.0046
 DV/DL  =         6.2499
 Ewald error estimate:   0.1082E-03
 ------------------------------------------------------------------------------

      DV/DL, AVERAGES OVER      10 STEPS

 NSTEP =   100000   TIME(PS) =     220.000  TEMP(K) =     5.28  PRESS =     0.0
 Etot   =         0.0000  EKtot   =         0.0000  EPtot      =       -19.9216
 BOND   =        -0.0000  ANGLE   =        -0.0000  DIHED      =         0.0000
 1-4 NB =         0.0000  1-4 EEL =        -8.1111  VDWAALS    =         4.2796
 EELEC  =       -16.0901  EHBOND  =         0.0000  RESTRAINT  =         0.0000
 EKCMT  =         0.0000  VIRIAL  =         0.0000  VOLUME     =         0.0000
                                                    Density    =         0.0000
 DV/DL  =       -19.9216
 Ewald error estimate:   0.0000E+00
 ------------------------------------------------------------------------------
