-------------------------------------------------------
          Amber 18 PMEMD                              2018
          -------------------------------------------------------

  [-O]verwriting output

File Assignments:

 Here is the input file:

TI simulation
 &cntrl
   imin = 0, nstlim = 100000, irest = 1, ntx = 5, dt = 0.002,
   ntt = 3, temp0 = 300.0, gamma_ln = 2.0, ig = -1,
   ntc = 2, ntf = 1,
   ntb = 2,
   ntp = 1, pres0 = 1.0, taup = 2.0,
   ioutfm = 1, iwrap = 1,
   ntwe = 1000, ntwx = 10000, ntpr = 10000, ntwr = 20000,

   icfe = 1, clambda = 1.0, scalpha = 0.5, scbeta = 12.0,
   logdvdl = 1,
   ifmbar = 1, bar_intervall = 1000, mbar_states = 11,
   mbar_lambda = 0.0, 0.1, 0.2, 0.3, 0.4, 0.5, 0.6, 0.7, 0.8, 0.9, 1.0,
   timask1 = ':1', timask2 = ':2',
   ifsc = 0, crgmask = ':1@O1,H6',
 /

 &ewald
 /

Note: ig = -1. Setting random seed to   219832 based on wallclock time in
      microseconds and disabling the synchronization of random numbers
      between tasks to improve performance.

--------------------------------------------------------------------------------
   1.  RESOURCE   USE:
--------------------------------------------------------------------------------

 getting box info from netcdf restart file
 NATOM  =   30554 NTYPES =      17 NBONH =   29246 MBONA  =    1324
 NTHETH =    2991 MTHETA =    1781 NPHIH =    6074 MPHIA  =    5537
 NHPARM =       0 NPARM  =       0 NNB   =   51648 NRES   =    9475
 NBONA  =    1324 NTHETA =    1781 NPHIA =    5537 NUMBND =      69
 NUMANG =     153 NPTRA  =     180 NATYP =      38 NPHB   =       1
 IFBOX  =       1 NMXRS  =      24 IFCAP =       0 NEXTRA =       0
 NCOPY  =       0

     BOX TYPE: RECTILINEAR

--------------------------------------------------------------------------------
   2.  CONTROL  DATA  FOR  THE  RUN
--------------------------------------------------------------------------------

default_name

General flags:
     imin    =       0, nmropt  =       0

Nature and format of input:
     ntx     =       5, irest   =       1, ntrx    =       1

Nature and format of output:
     ntxo    =       2, ntpr    =   10000, ntrx    =       1, ntwr    =   20000
     iwrap   =       1, ntwx    =   10000, ntwv    =       0, ntwe    =    1000
     ioutfm  =       1, ntwprt  =       0, idecomp =       0, rbornstat=      0

Potential function:
     ntf     =       1, ntb     =       2, igb     =       0, nsnb    =      25
     ipol    =       0, gbsa    =       0, iesp    =       0
     dielc   =   1.00000, cut     =   8.00000, intdiel =   1.00000

Frozen or restrained atoms:
     ibelly  =       0, ntr     =       0

Molecular dynamics:
     nstlim  =    100000, nscm    =      1000, nrespa  =         1
     t       =   0.00000, dt      =   0.00200, vlimit  =  20.00000

Langevin dynamics temperature regulation:
     ig      =  219832
     temp0   = 300.00000, tempi   =   0.00000, gamma_ln=   2.00000

Pressure regulation:
     ntp     =       1
     pres0   =   1.00000, comp    =  44.60000, taup    =   2.00000

SHAKE:
     ntc     =       2, jfastw  =       0
     tol     =   0.00001

Free energy options:
     icfe    =       1, ifsc    =       0, klambda =       1
     clambda =  1.0000, scalpha =  0.5000, scbeta  = 12.0000
     sceeorder =       2
     dynlmb =  0.0000 logdvdl =       1

FEP MBAR options:
     ifmbar  =       1,  bar_intervall =     1000
     mbar_states =      11

Ewald parameters:
     verbose =       0, ew_type =       0, nbflag  =       1, use_pme =       1
     vdwmeth =       1, eedmeth =       1, netfrc  =       1
     Box X =   68.526   Box Y =   72.839   Box Z =   81.366
     Alpha =   90.000   Beta  =   90.000   Gamma =   90.000
     NFFT1 =   72       NFFT2 =   75       NFFT3 =   90
     Cutoff=    8.000   Tol   =0.100E-04
     Ewald Coefficient =  0.34864
     Interpolation order =    4

     TI Mask 1 :1; matches     13 atoms
     TI Mask 2 :2; matches     13 atoms
     TI region 1:   30541 atoms
     TI region 2:   30541 atoms
Removing charge of      -0.5539 from atom      12
Removing charge of       0.3791 from atom      13
Total charge of  -0.17486000 removed from       2 atoms

    MBAR - lambda values considered:
      11 total:  0.0000 0.1000 0.2000 0.3000 0.4000 0.5000 0.6000 0.7000 0.8000 0.9000 1.0000
    Extra energies will be computed    100 times.
     Checking for mismatched coordinates.

--------------------------------------------------------------------------------
   3.  ATOMIC COORDINATES AND VELOCITIES
--------------------------------------------------------------------------------

default_name
 begin time read from input coords =    20.000 ps

 Number of triangulated 3-point waters found:     9307

     Sum of charges for TI region  1 =   0.17526093
     Assuming uniform neutralizing plasma

     Sum of charges for TI region  2 =   0.00040093
     Forcing neutrality...

--------------------------------------------------------------------------------
   4.  RESULTS
 NSTEP =    10000   TIME(PS) =      40.000  TEMP(K) =   301.86  PRESS =  -221.1
 Etot   =    -72540.6060  EKtot   =     18710.1521  EPtot      =    -91250.7581
 BOND   =       488.9260  ANGLE   =      1214.7342  DIHED      =      2039.9785
 1-4 NB =       600.8953  1-4 EEL =      5888.4421  VDWAALS    =     11391.3635
 EELEC  =   -112875.0978  EHBOND  =         0.0000  RESTRAINT  =         0.0000
 EKCMT  =      8388.3711  VIRIAL  =     10122.8211  VOLUME     =    363268.2891
                                                    Density    =         0.8514
 DV/DL  =       -36.3734
 Ewald error estimate:   0.3082E-04
 ------------------------------------------------------------------------------

      A V E R A G E S   O V E R      10 S T E P S

 NSTEP =   100000   TIME(PS) =     220.000  TEMP(K) =   300.13  PRESS =   -57.2
 Etot   =    -73912.8039  EKtot   =     18603.3607  EPtot      =    -92516.1646
 BOND   =       496.4483  ANGLE   =      1243.0987  DIHED      =      2050.1576
 1-4 NB =       608.4572  1-4 EEL =      5899.5233  VDWAALS    =     11491.6419
 EELEC  =   -114305.4916  EHBOND  =         0.0000  RESTRAINT  =         0.0000
 EKCMT  =      8346.5349  VIRIAL  =      8761.0472  VOLUME     =    313904.5767
                                                    Density    =         0.9880
 DV/DL  =       -37.3863
 Ewald error estimate:   0.5665E-04
 ------------------------------------------------------------------------------

      R M S  F L U C T U A T I O N S

 NSTEP =   100000   TIME(PS) =     220.000  TEMP(K) =     1.31  PRESS =   122.9
 Etot   =       546.5292  EKtot   =        81.0672  EPtot      =       514.3416
 BOND   =        17.3609  ANGLE   =        25.7083  DIHED      =        13.4855
 1-4 NB =        12.7764  1-4 EEL =        24.4457  VDWAALS    =        80.2138
 EELEC  =       578.0612  EHBOND  =         0.0000  RESTRAINT  =         0.0000
 EKCMT  =        48.9552  VIRIAL  =       888.8541  VOLUME     =     17413.2286
                                                    Density    =         0.0488
 DV/DL  =         1.6661
 Ewald error estimate:   0.3655E-04
 ------------------------------------------------------------------------------

      A V E R A G E S   O V E R      10 S T E P S

 NSTEP =   100000   TIME(PS) =     220.000  TEMP(K) =   300.13  PRESS =   -57.2
 Etot   =    -73912.8039  EKtot   =     18603.3607  EPtot      =    -92516.1646
 BOND   =       496.4483  ANGLE   =      1243.0987  DIHED      =      2050.1576
 1-4 NB =       608.4572  1-4 EEL =      5899.5233  VDWAALS    =     11491.6419
 EELEC  =   -114305.4916  EHBOND  =         0.0000  RESTRAINT  =         0.0000
 EKCMT  =      8346.5349  VIRIAL  =      8761.0472  VOLUME     =    313904.5767
                                                    Density    =         0.9880
 DV/DL  =       -37.3863
 Ewald error estimate:   0.5665E-04
 ------------------------------------------------------------------------------

      R M S  F L U C T U A T I O N S

 NSTEP =   100000   TIME(PS) =     220.000  TEMP(K) =     1.31  PRESS =   122.9
 Etot   =       546.5292  EKtot   =        81.0672  EPtot      =       514.3416
 BOND   =        17.3609  ANGLE   =        25.7083  DIHED      =        13.4855
 1-4 NB =        12.7764  1-4 EEL =        24.4457  VDWAALS    =        80.2138
 EELEC  =       578.0612  EHBOND  =         0.0000  RESTRAINT  =         0.0000
 EKCMT  =        48.9552  VIRIAL  =       888.8541  VOLUME     =     17413.2286
                                                    Density    =         0.0488
 DV/DL  =         1.6661
 Ewald error estimate:   0.3655E-04
 ------------------------------------------------------------------------------

      DV/DL, AVERAGES OVER      10 STEPS

 NSTEP =   100000   TIME(PS) =     220.000  TEMP(K) =     1.31  PRESS =     0.0
 Etot   =         0.0000  EKtot   =         0.0000  EPtot      =       -37.3863
 BOND   =         0.0000  ANGLE   =         0.0000  DIHED      =        -0.0000
 1-4 NB =         0.0000  1-4 EEL =       -38.5862  VDWAALS    =         0.0000
 EELEC  =         1.1999  EHBOND  =         0.0000  RESTRAINT  =         0.0000
 EKCMT  =         0.0000  VIRIAL  =         0.0000  VOLUME     =         0.0000
                                                    Density    =         0.0000
 DV/DL  =       -37.3863
 Ewald error estimate:   0.0000E+00
 ------------------------------------------------------------------------------
