-------------------------------------------------------
          Amber 16 PMEMD                              2016
          -------------------------------------------------------

  [-O]verwriting output

File Assignments:

 Here is the input file:

TI simulation
 &cntrl
   imin = 0, nstlim = 100000, irest = 1, ntx = 5, dt = 0.002,
   ntt = 3, temp0 = 300.0, gamma_ln = 2.0, ig = -1,
   vlimit = 20,
   ntc = 2, ntf = 1,
   ntb = 2,
   ntp = 1, pres0 = 1.0, taup = 2.0,
   ioutfm = 1, iwrap = 1,
   ntwe = 1000, ntwx = 10000, ntpr = 10000, ntwr = 20000,

   icfe = 1, clambda = 0.700, scalpha = 0.5, scbeta = 12.0,
   logdvdl = 1,
   ifmbar = 1, bar_intervall = 1000, mbar_states = 11,
   mbar_lambda = 0.0,0.1,0.2,0.3,0.4,0.5,0.6,0.7,0.8,0.9,1.0,
   timask1 = ':1', timask2 = ':2',
   ifsc = 0, crgmask = ':1@H7'
 /

 &ewald
 /

Note: ig = -1. Setting random seed to   118974 based on wallclock time in
      microseconds.

--------------------------------------------------------------------------------
   1.  RESOURCE   USE:
--------------------------------------------------------------------------------

 getting box info from netcdf restart file
 NATOM  =    1832 NTYPES =       5 NBONH =    1818 MBONA  =      14
 NTHETH =    1828 MTHETA =      16 NPHIH =      36 MPHIA  =      16
 NHPARM =       0 NPARM  =       0 NNB   =    2522 NRES   =     604
 NBONA  =      14 NTHETA =      16 NPHIA =      16 NUMBND =       6
 NUMANG =       6 NPTRA  =       2 NATYP =       6 NPHB   =       0
 IFBOX  =       1 NMXRS  =      13 IFCAP =       0 NEXTRA =       0
 NCOPY  =       0

     BOX TYPE: RECTILINEAR

--------------------------------------------------------------------------------
   2.  CONTROL  DATA  FOR  THE  RUN
--------------------------------------------------------------------------------

NIL

General flags:
     imin    =       0, nmropt  =       0

Nature and format of input:
     ntx     =       5, irest   =       1, ntrx    =       1

Nature and format of output:
     ntxo    =       2, ntpr    =   10000, ntrx    =       1, ntwr    =   20000
     iwrap   =       1, ntwx    =   10000, ntwv    =       0, ntwe    =    1000
     ioutfm  =       1, ntwprt  =       0, idecomp =       0, rbornstat=      0

Potential function:
     ntf     =       1, ntb     =       2, igb     =       0, nsnb    =      25
     ipol    =       0, gbsa    =       0, iesp    =       0
     dielc   =   1.00000, cut     =   8.00000, intdiel =   1.00000

Frozen or restrained atoms:
     ibelly  =       0, ntr     =       0

Molecular dynamics:
     nstlim  =    100000, nscm    =      1000, nrespa  =         1
     t       =   0.00000, dt      =   0.00200, vlimit  =  20.00000

Langevin dynamics temperature regulation:
     ig      =  118974
     temp0   = 300.00000, tempi   =   0.00000, gamma_ln=   2.00000

Pressure regulation:
     ntp     =       1
     pres0   =   1.00000, comp    =  44.60000, taup    =   2.00000

SHAKE:
     ntc     =       2, jfastw  =       0
     tol     =   0.00001

Free energy options:
     icfe    =       1, ifsc    =       0, klambda =       1
     clambda =  0.7000, scalpha =  0.5000, scbeta  = 12.0000
     sceeorder =       2
     dynlmb =  0.0000 logdvdl =       1

FEP MBAR options:
     ifmbar  =       1,  bar_intervall =     1000
     mbar_states =      11

Ewald parameters:
     verbose =       0, ew_type =       0, nbflag  =       1, use_pme =       1
     vdwmeth =       1, eedmeth =       1, netfrc  =       1
     Box X =   29.219   Box Y =   29.414   Box Z =   30.661
     Alpha =   90.000   Beta  =   90.000   Gamma =   90.000
     NFFT1 =   32       NFFT2 =   32       NFFT3 =   32
     Cutoff=    8.000   Tol   =0.100E-04
     Ewald Coefficient =  0.34864
     Interpolation order =    4
     TI Mask 1 :1; matches     13 atoms
     TI Mask 2 :2; matches     13 atoms
     TI region 1:    1819 atoms
     TI region 2:    1819 atoms
Removing charge of       0.4181 from atom      13
Total charge of   0.41807699 removed from       1 atoms

    MBAR - lambda values considered:
      11 total:  0.0000 0.1000 0.2000 0.3000 0.4000 0.5000 0.6000 0.7000 0.8000 0.9000 1.0000
    Extra energies will be computed    100 times.
     Checking for mismatched coordinates.

--------------------------------------------------------------------------------
   3.  ATOMIC COORDINATES AND VELOCITIES
--------------------------------------------------------------------------------

NIL
 begin time read from input coords =    20.000 ps

 Number of triangulated 3-point waters found:      602

     Sum of charges for TI region  1 =  -0.41807467
     Assuming uniform neutralizing plasma

     Sum of charges for TI region  2 =   0.00000232
     Forcing neutrality...

--------------------------------------------------------------------------------
   4.  RESULTS
 NSTEP =    10000   TIME(PS) =      40.000  TEMP(K) =   305.60  PRESS =  1111.0
 Etot   =     -4551.4039  EKtot   =      1106.7638  EPtot      =     -5658.1676
 BOND   =         2.9785  ANGLE   =         3.1624  DIHED      =         1.6388
 1-4 NB =        13.2945  1-4 EEL =       -29.8883  VDWAALS    =       802.3955
 EELEC  =     -6451.7490  EHBOND  =         0.0000  RESTRAINT  =         0.0000
 EKCMT  =         2.7916  VIRIAL  =      -473.1701  VOLUME     =     19842.4697
                                                    Density    =         0.9155
 DV/DL  =         3.8583
 ------------------------------------------------------------------------------

      A V E R A G E S   O V E R      10 S T E P S

 NSTEP =   100000   TIME(PS) =     220.000  TEMP(K) =   302.57  PRESS =   580.7
 Etot   =     -4634.4416  EKtot   =      1095.8149  EPtot      =     -5730.2565
 BOND   =         2.9086  ANGLE   =         3.7901  DIHED      =         3.3408
 1-4 NB =        14.0097  1-4 EEL =       -29.2812  VDWAALS    =       851.9117
 EELEC  =     -6576.9363  EHBOND  =         0.0000  RESTRAINT  =         0.0000
 EKCMT  =         2.6643  VIRIAL  =      -232.8453  VOLUME     =     18746.0334
                                                    Density    =         0.9695
 DV/DL  =         7.4752
 ------------------------------------------------------------------------------

      R M S  F L U C T U A T I O N S

 NSTEP =   100000   TIME(PS) =     220.000  TEMP(K) =     6.94  PRESS =  1460.7
 Etot   =        60.3813  EKtot   =        25.1323  EPtot      =        47.5663
 BOND   =         1.7560  ANGLE   =         1.3710  DIHED      =         1.5818
 1-4 NB =         2.2539  1-4 EEL =         0.6511  VDWAALS    =        37.3238
 EELEC  =        79.7508  EHBOND  =         0.0000  RESTRAINT  =         0.0000
 EKCMT  =         0.9957  VIRIAL  =       587.7530  VOLUME     =       381.0361
                                                    Density    =         0.0189
 DV/DL  =         6.2055
 ------------------------------------------------------------------------------

      A V E R A G E S   O V E R      10 S T E P S

 NSTEP =   100000   TIME(PS) =     220.000  TEMP(K) =   302.57  PRESS =   580.7
 Etot   =     -4634.4416  EKtot   =      1095.8149  EPtot      =     -5730.2565
 BOND   =         2.9086  ANGLE   =         3.7901  DIHED      =         3.3408
 1-4 NB =        14.0097  1-4 EEL =       -29.2812  VDWAALS    =       851.9117
 EELEC  =     -6576.9363  EHBOND  =         0.0000  RESTRAINT  =         0.0000
 EKCMT  =         2.6643  VIRIAL  =      -232.8453  VOLUME     =     18746.0334
                                                    Density    =         0.9695
 DV/DL  =         7.4752
 ------------------------------------------------------------------------------

      R M S  F L U C T U A T I O N S

 NSTEP =   100000   TIME(PS) =     220.000  TEMP(K) =     6.94  PRESS =  1460.7
 Etot   =        60.3813  EKtot   =        25.1323  EPtot      =        47.5663
 BOND   =         1.7560  ANGLE   =         1.3710  DIHED      =         1.5818
 1-4 NB =         2.2539  1-4 EEL =         0.6511  VDWAALS    =        37.3238
 EELEC  =        79.7508  EHBOND  =         0.0000  RESTRAINT  =         0.0000
 EKCMT  =         0.9957  VIRIAL  =       587.7530  VOLUME     =       381.0361
                                                    Density    =         0.0189
 DV/DL  =         6.2055
 ------------------------------------------------------------------------------

      DV/DL, AVERAGES OVER      10 STEPS

 NSTEP =   100000   TIME(PS) =     220.000  TEMP(K) =     6.94  PRESS =     0.0
 Etot   =         0.0000  EKtot   =         0.0000  EPtot      =         7.4752
 BOND   =         0.0000  ANGLE   =         0.0000  DIHED      =         0.0000
 1-4 NB =         0.0000  1-4 EEL =       -21.6891  VDWAALS    =         0.0000
 EELEC  =        29.1643  EHBOND  =         0.0000  RESTRAINT  =         0.0000
 EKCMT  =         0.0000  VIRIAL  =         0.0000  VOLUME     =         0.0000
                                                    Density    =         0.0000
 DV/DL  =         7.4752
 ------------------------------------------------------------------------------
