-------------------------------------------------------
          Amber 16 PMEMD                              2016
          -------------------------------------------------------

  [-O]verwriting output

File Assignments:

 Here is the input file:

TI simulation
 &cntrl
   imin = 0, nstlim = 100000, irest = 1, ntx = 5, dt = 0.002,
   ntt = 3, temp0 = 300.0, gamma_ln = 2.0, ig = -1,
   vlimit = 20,
   ntc = 2, ntf = 1,
   ntb = 2,
   ntp = 1, pres0 = 1.0, taup = 2.0,
   ioutfm = 1, iwrap = 1,
   ntwe = 1000, ntwx = 10000, ntpr = 10000, ntwr = 20000,

   icfe = 1, clambda = 0.300, scalpha = 0.5, scbeta = 12.0,
   logdvdl = 1,
   ifmbar = 1, bar_intervall = 1000, mbar_states = 11,
   mbar_lambda = 0.0,0.1,0.2,0.3,0.4,0.5,0.6,0.7,0.8,0.9,1.0,
   timask1 = ':1', timask2 = ':2',
   ifsc = 0, crgmask = ':1@H7'
 /

 &ewald
 /

Note: ig = -1. Setting random seed to   488234 based on wallclock time in
      microseconds.

--------------------------------------------------------------------------------
   1.  RESOURCE   USE:
--------------------------------------------------------------------------------

 getting box info from netcdf restart file
 NATOM  =    1832 NTYPES =       5 NBONH =    1818 MBONA  =      14
 NTHETH =    1828 MTHETA =      16 NPHIH =      36 MPHIA  =      16
 NHPARM =       0 NPARM  =       0 NNB   =    2522 NRES   =     604
 NBONA  =      14 NTHETA =      16 NPHIA =      16 NUMBND =       6
 NUMANG =       6 NPTRA  =       2 NATYP =       6 NPHB   =       0
 IFBOX  =       1 NMXRS  =      13 IFCAP =       0 NEXTRA =       0
 NCOPY  =       0

     BOX TYPE: RECTILINEAR

--------------------------------------------------------------------------------
   2.  CONTROL  DATA  FOR  THE  RUN
--------------------------------------------------------------------------------

NIL

General flags:
     imin    =       0, nmropt  =       0

Nature and format of input:
     ntx     =       5, irest   =       1, ntrx    =       1

Nature and format of output:
     ntxo    =       2, ntpr    =   10000, ntrx    =       1, ntwr    =   20000
     iwrap   =       1, ntwx    =   10000, ntwv    =       0, ntwe    =    1000
     ioutfm  =       1, ntwprt  =       0, idecomp =       0, rbornstat=      0

Potential function:
     ntf     =       1, ntb     =       2, igb     =       0, nsnb    =      25
     ipol    =       0, gbsa    =       0, iesp    =       0
     dielc   =   1.00000, cut     =   8.00000, intdiel =   1.00000

Frozen or restrained atoms:
     ibelly  =       0, ntr     =       0

Molecular dynamics:
     nstlim  =    100000, nscm    =      1000, nrespa  =         1
     t       =   0.00000, dt      =   0.00200, vlimit  =  20.00000

Langevin dynamics temperature regulation:
     ig      =  488234
     temp0   = 300.00000, tempi   =   0.00000, gamma_ln=   2.00000

Pressure regulation:
     ntp     =       1
     pres0   =   1.00000, comp    =  44.60000, taup    =   2.00000

SHAKE:
     ntc     =       2, jfastw  =       0
     tol     =   0.00001

Free energy options:
     icfe    =       1, ifsc    =       0, klambda =       1
     clambda =  0.3000, scalpha =  0.5000, scbeta  = 12.0000
     sceeorder =       2
     dynlmb =  0.0000 logdvdl =       1

FEP MBAR options:
     ifmbar  =       1,  bar_intervall =     1000
     mbar_states =      11

Ewald parameters:
     verbose =       0, ew_type =       0, nbflag  =       1, use_pme =       1
     vdwmeth =       1, eedmeth =       1, netfrc  =       1
     Box X =   29.219   Box Y =   29.414   Box Z =   30.661
     Alpha =   90.000   Beta  =   90.000   Gamma =   90.000
     NFFT1 =   32       NFFT2 =   32       NFFT3 =   32
     Cutoff=    8.000   Tol   =0.100E-04
     Ewald Coefficient =  0.34864
     Interpolation order =    4
     TI Mask 1 :1; matches     13 atoms
     TI Mask 2 :2; matches     13 atoms
     TI region 1:    1819 atoms
     TI region 2:    1819 atoms
Removing charge of       0.4181 from atom      13
Total charge of   0.41807699 removed from       1 atoms

    MBAR - lambda values considered:
      11 total:  0.0000 0.1000 0.2000 0.3000 0.4000 0.5000 0.6000 0.7000 0.8000 0.9000 1.0000
    Extra energies will be computed    100 times.
     Checking for mismatched coordinates.

--------------------------------------------------------------------------------
   3.  ATOMIC COORDINATES AND VELOCITIES
--------------------------------------------------------------------------------

NIL
 begin time read from input coords =    20.000 ps

 Number of triangulated 3-point waters found:      602

     Sum of charges for TI region  1 =  -0.41807467
     Assuming uniform neutralizing plasma

     Sum of charges for TI region  2 =   0.00000232
     Forcing neutrality...

--------------------------------------------------------------------------------
   4.  RESULTS
 NSTEP =    10000   TIME(PS) =      40.000  TEMP(K) =   305.93  PRESS =  1211.5
 Etot   =     -4544.1598  EKtot   =      1107.9721  EPtot      =     -5652.1319
 BOND   =         0.7884  ANGLE   =         3.2992  DIHED      =         4.0634
 1-4 NB =        14.7725  1-4 EEL =       -21.0530  VDWAALS    =       818.1572
 EELEC  =     -6472.1596  EHBOND  =         0.0000  RESTRAINT  =         0.0000
 EKCMT  =         0.4837  VIRIAL  =      -503.7221  VOLUME     =     19275.1739
                                                    Density    =         0.9425
 DV/DL  =        17.3630
 ------------------------------------------------------------------------------

      A V E R A G E S   O V E R      10 S T E P S

 NSTEP =   100000   TIME(PS) =     220.000  TEMP(K) =   295.02  PRESS =   822.3
 Etot   =     -4694.4646  EKtot   =      1068.4544  EPtot      =     -5762.9190
 BOND   =         2.4232  ANGLE   =         3.4195  DIHED      =         3.5833
 1-4 NB =        13.7332  1-4 EEL =       -20.6790  VDWAALS    =       836.1701
 EELEC  =     -6601.5694  EHBOND  =         0.0000  RESTRAINT  =         0.0000
 EKCMT  =         2.4356  VIRIAL  =      -325.7518  VOLUME     =     18488.0970
                                                    Density    =         0.9828
 DV/DL  =        22.3371
 ------------------------------------------------------------------------------

      R M S  F L U C T U A T I O N S

 NSTEP =   100000   TIME(PS) =     220.000  TEMP(K) =     6.14  PRESS =  1559.6
 Etot   =        67.8162  EKtot   =        22.2463  EPtot      =        51.4160
 BOND   =         1.6451  ANGLE   =         1.6044  DIHED      =         1.3458
 1-4 NB =         1.0586  1-4 EEL =         0.6395  VDWAALS    =        17.7306
 EELEC  =        64.1430  EHBOND  =         0.0000  RESTRAINT  =         0.0000
 EKCMT  =         1.8383  VIRIAL  =       621.0659  VOLUME     =       282.4922
                                                    Density    =         0.0146
 DV/DL  =         5.4901
 ------------------------------------------------------------------------------

      A V E R A G E S   O V E R      10 S T E P S

 NSTEP =   100000   TIME(PS) =     220.000  TEMP(K) =   295.02  PRESS =   822.3
 Etot   =     -4694.4646  EKtot   =      1068.4544  EPtot      =     -5762.9190
 BOND   =         2.4232  ANGLE   =         3.4195  DIHED      =         3.5833
 1-4 NB =        13.7332  1-4 EEL =       -20.6790  VDWAALS    =       836.1701
 EELEC  =     -6601.5694  EHBOND  =         0.0000  RESTRAINT  =         0.0000
 EKCMT  =         2.4356  VIRIAL  =      -325.7518  VOLUME     =     18488.0970
                                                    Density    =         0.9828
 DV/DL  =        22.3371
 ------------------------------------------------------------------------------

      R M S  F L U C T U A T I O N S

 NSTEP =   100000   TIME(PS) =     220.000  TEMP(K) =     6.14  PRESS =  1559.6
 Etot   =        67.8162  EKtot   =        22.2463  EPtot      =        51.4160
 BOND   =         1.6451  ANGLE   =         1.6044  DIHED      =         1.3458
 1-4 NB =         1.0586  1-4 EEL =         0.6395  VDWAALS    =        17.7306
 EELEC  =        64.1430  EHBOND  =         0.0000  RESTRAINT  =         0.0000
 EKCMT  =         1.8383  VIRIAL  =       621.0659  VOLUME     =       282.4922
                                                    Density    =         0.0146
 DV/DL  =         5.4901
 ------------------------------------------------------------------------------

      DV/DL, AVERAGES OVER      10 STEPS

 NSTEP =   100000   TIME(PS) =     220.000  TEMP(K) =     6.14  PRESS =     0.0
 Etot   =         0.0000  EKtot   =         0.0000  EPtot      =        22.3371
 BOND   =         0.0000  ANGLE   =         0.0000  DIHED      =         0.0000
 1-4 NB =         0.0000  1-4 EEL =       -21.6029  VDWAALS    =         0.0000
 EELEC  =        43.9400  EHBOND  =         0.0000  RESTRAINT  =         0.0000
 EKCMT  =         0.0000  VIRIAL  =         0.0000  VOLUME     =         0.0000
                                                    Density    =         0.0000
 DV/DL  =        22.3371
 ------------------------------------------------------------------------------
