-------------------------------------------------------
          Amber 18 PMEMD                              2018
          -------------------------------------------------------

  [-O]verwriting output

File Assignments:

 Here is the input file:

TI simulation
 &cntrl
   imin = 0, nstlim = 100000, irest = 1, ntx = 5, dt = 0.002,
   ntt = 3, temp0 = 300.0, gamma_ln = 2.0, ig = -1,
   ntc = 2, ntf = 1,
   ntb = 2,
   ntp = 1, pres0 = 1.0, taup = 2.0,
   ioutfm = 1, iwrap = 1,
   ntwe = 1000, ntwx = 10000, ntpr = 10000, ntwr = 20000,

   icfe = 1, clambda = 0.1, scalpha = 0.5, scbeta = 12.0,
   logdvdl = 1,
   ifmbar = 1, bar_intervall = 1000, mbar_states = 11,
   mbar_lambda = 0.0, 0.1, 0.2, 0.3, 0.4, 0.5, 0.6, 0.7, 0.8, 0.9, 1.0,
   timask1 = ':1', timask2 = ':2',
   ifsc=1, scmask1=':1@H6', scmask2=':2@O1,H6', crgmask=':1@H6 | :2@O1,H6'
 /

 &ewald
 /

Note: ig = -1. Setting random seed to   795705 based on wallclock time in
      microseconds.

--------------------------------------------------------------------------------
   1.  RESOURCE   USE:
--------------------------------------------------------------------------------

 getting box info from netcdf restart file
 NATOM  =    2632 NTYPES =       6 NBONH =    2619 MBONA  =      13
 NTHETH =      23 MTHETA =      14 NPHIH =      47 MPHIA  =      14
 NHPARM =       0 NPARM  =       0 NNB   =    3584 NRES   =     871
 NBONA  =      13 NTHETA =      14 NPHIA =      14 NUMBND =       6
 NUMANG =       4 NPTRA  =       3 NATYP =       6 NPHB   =       1
 IFBOX  =       1 NMXRS  =      13 IFCAP =       0 NEXTRA =       0
 NCOPY  =       0

     BOX TYPE: RECTILINEAR

--------------------------------------------------------------------------------
   2.  CONTROL  DATA  FOR  THE  RUN
--------------------------------------------------------------------------------

default_name

General flags:
     imin    =       0, nmropt  =       0

Nature and format of input:
     ntx     =       5, irest   =       1, ntrx    =       1

Nature and format of output:
     ntxo    =       2, ntpr    =   10000, ntrx    =       1, ntwr    =   20000
     iwrap   =       1, ntwx    =   10000, ntwv    =       0, ntwe    =    1000
     ioutfm  =       1, ntwprt  =       0, idecomp =       0, rbornstat=      0

Potential function:
     ntf     =       1, ntb     =       2, igb     =       0, nsnb    =      25
     ipol    =       0, gbsa    =       0, iesp    =       0
     dielc   =   1.00000, cut     =   8.00000, intdiel =   1.00000

Frozen or restrained atoms:
     ibelly  =       0, ntr     =       0

Molecular dynamics:
     nstlim  =    100000, nscm    =      1000, nrespa  =         1
     t       =   0.00000, dt      =   0.00200, vlimit  =  20.00000

Langevin dynamics temperature regulation:
     ig      =  795705
     temp0   = 300.00000, tempi   =   0.00000, gamma_ln=   2.00000

Pressure regulation:
     ntp     =       1
     pres0   =   1.00000, comp    =  44.60000, taup    =   2.00000

SHAKE:
     ntc     =       2, jfastw  =       0
     tol     =   0.00001

Free energy options:
     icfe    =       1, ifsc    =       1, klambda =       1
     clambda =  0.1000, scalpha =  0.5000, scbeta  = 12.0000
     sceeorder =       2
     dynlmb =  0.0000 logdvdl =       1

FEP MBAR options:
     ifmbar  =       1,  bar_intervall =     1000
     mbar_states =      11

Ewald parameters:
     verbose =       0, ew_type =       0, nbflag  =       1, use_pme =       1
     vdwmeth =       1, eedmeth =       1, netfrc  =       1
     Box X =   29.912   Box Y =   30.951   Box Z =   31.726
     Alpha =   90.000   Beta  =   90.000   Gamma =   90.000
     NFFT1 =   30       NFFT2 =   32       NFFT3 =   32
     Cutoff=    8.000   Tol   =0.100E-04
     Ewald Coefficient =  0.34864
     Interpolation order =    4
     TI Mask 1 :1; matches     12 atoms
     TI Mask 2 :2; matches     13 atoms
     TI region 1:    2619 atoms
     TI region 2:    2620 atoms
     SC Mask 1 :1@H6; matches      1 atoms
     SC Mask 2 :2@O1,H6; matches      2 atoms
Removing charge of       0.1305 from atom      12
Removing charge of      -0.5539 from atom      24
Removing charge of       0.3791 from atom      25
Total charge of  -0.04433900 removed from       3 atoms

    MBAR - lambda values considered:
      11 total:  0.0000 0.1000 0.2000 0.3000 0.4000 0.5000 0.6000 0.7000 0.8000 0.9000 1.0000
    Extra energies will be computed    100 times.

--------------------------------------------------------------------------------
   3.  ATOMIC COORDINATES AND VELOCITIES
--------------------------------------------------------------------------------

default_name
 begin time read from input coords =    20.000 ps

     Molecule     1 is partially softcore
     Molecule     2 is partially softcore
 Number of triangulated 3-point waters found:      869
 WARNING: SHAKEn bond for atoms       11       12 is partially softcore.
 Coordinates for common atoms will be synchronized from V0.
 Consider using noshake mask or disabling SHAKE.

 Number of shake restraints removed in TI region  1 :        0
 Number of shake restraints removed in TI region  2 :        0

     Sum of charges for TI region  1 =  -0.13052100
     Assuming uniform neutralizing plasma

     Sum of charges for TI region  2 =   0.17486100
     Assuming uniform neutralizing plasma

--------------------------------------------------------------------------------
   4.  RESULTS
 NSTEP =    10000   TIME(PS) =      40.000  TEMP(K) =   295.09  PRESS =  -162.5
 Etot   =     -6745.7625  EKtot   =      1537.5317  EPtot      =     -8283.2942
 BOND   =         2.7162  ANGLE   =         1.5229  DIHED      =         1.6342
 1-4 NB =         2.8186  1-4 EEL =        -2.0200  VDWAALS    =      1201.7763
 EELEC  =     -9491.7425  EHBOND  =         0.0000  RESTRAINT  =         0.0000
 EKCMT  =       750.9897  VIRIAL  =       844.0469  VOLUME     =     26519.5680
                                                    Density    =         0.9852
 DV/DL  =         1.9205
 Ewald error estimate:   0.2186E-03
 ------------------------------------------------------------------------------

      A V E R A G E S   O V E R      10 S T E P S

 NSTEP =   100000   TIME(PS) =     220.000  TEMP(K) =   303.85  PRESS =   -24.3
 Etot   =     -6712.4261  EKtot   =      1583.2096  EPtot      =     -8295.6357
 BOND   =         1.8859  ANGLE   =         2.0999  DIHED      =         1.6888
 1-4 NB =         3.4661  1-4 EEL =        -1.9983  VDWAALS    =      1227.2048
 EELEC  =     -9529.9828  EHBOND  =         0.0000  RESTRAINT  =         0.0000
 EKCMT  =       785.3865  VIRIAL  =       799.3116  VOLUME     =     26547.0791
                                                    Density    =         0.9842
 DV/DL  =         4.2081
 Ewald error estimate:   0.2305E-03
 ------------------------------------------------------------------------------

      R M S  F L U C T U A T I O N S

 NSTEP =   100000   TIME(PS) =     220.000  TEMP(K) =     8.13  PRESS =   171.9
 Etot   =        55.3148  EKtot   =        42.3700  EPtot      =        48.0137
 BOND   =         0.9154  ANGLE   =         1.0227  DIHED      =         0.7732
 1-4 NB =         0.4749  1-4 EEL =         0.0538  VDWAALS    =        20.6306
 EELEC  =        61.7069  EHBOND  =         0.0000  RESTRAINT  =         0.0000
 EKCMT  =        26.6680  VIRIAL  =        96.4787  VOLUME     =       107.5112
                                                    Density    =         0.0040
 DV/DL  =         1.9817
 Ewald error estimate:   0.1110E-03
 ------------------------------------------------------------------------------

      A V E R A G E S   O V E R      10 S T E P S

 NSTEP =   100000   TIME(PS) =     220.000  TEMP(K) =   303.92  PRESS =   -24.3
 Etot   =     -6711.1583  EKtot   =      1584.4774  EPtot      =     -8295.6357
 BOND   =         1.8859  ANGLE   =         2.0999  DIHED      =         1.6888
 1-4 NB =         3.4661  1-4 EEL =        -1.9983  VDWAALS    =      1227.2048
 EELEC  =     -9529.9828  EHBOND  =         0.0000  RESTRAINT  =         0.0000
 EKCMT  =       785.3865  VIRIAL  =       799.3116  VOLUME     =     26547.0791
                                                    Density    =         0.9852
 DV/DL  =         4.2081
 Ewald error estimate:   0.2305E-03
 ------------------------------------------------------------------------------

      R M S  F L U C T U A T I O N S

 NSTEP =   100000   TIME(PS) =     220.000  TEMP(K) =     8.04  PRESS =   171.9
 Etot   =        55.4217  EKtot   =        41.9147  EPtot      =        48.0137
 BOND   =         0.9154  ANGLE   =         1.0227  DIHED      =         0.7732
 1-4 NB =         0.4749  1-4 EEL =         0.0538  VDWAALS    =        20.6306
 EELEC  =        61.7069  EHBOND  =         0.0000  RESTRAINT  =         0.0000
 EKCMT  =        26.6680  VIRIAL  =        96.4787  VOLUME     =       107.5112
                                                    Density    =         0.0040
 DV/DL  =         1.9817
 Ewald error estimate:   0.1110E-03
 ------------------------------------------------------------------------------

      DV/DL, AVERAGES OVER      10 STEPS

 NSTEP =   100000   TIME(PS) =     220.000  TEMP(K) =     8.04  PRESS =     0.0
 Etot   =         0.0000  EKtot   =         0.0000  EPtot      =         4.2081
 BOND   =         0.0000  ANGLE   =        -0.0000  DIHED      =         0.0000
 1-4 NB =        -0.0000  1-4 EEL =        -7.9749  VDWAALS    =        -1.5046
 EELEC  =        13.6876  EHBOND  =         0.0000  RESTRAINT  =         0.0000
 EKCMT  =         0.0000  VIRIAL  =         0.0000  VOLUME     =         0.0000
                                                    Density    =         0.0000
 DV/DL  =         4.2081
 Ewald error estimate:   0.0000E+00
 ------------------------------------------------------------------------------
