-------------------------------------------------------
          Amber 18 PMEMD                              2018
          -------------------------------------------------------

  [-O]verwriting output

File Assignments:

 Here is the input file:

pressurising
 &cntrl
   imin = 0, nstlim = 10000, irest = 1, ntx = 5, dt = 0.002,
   ntt = 1, temp0 = 300.0, tautp = 1.0,
   ntp = 1, pres0 = 1.0, taup = 2.0,
   ntb = 2,
   ntc = 2, ntf = 1,
   ioutfm = 1, iwrap = 1,
   ntwe = 1000, ntwx = 1000, ntpr = 1000, ntwr = 5000,

   ntr = 1, restraint_wt = 5.00,
   restraintmask='!:WAT & !@H=',

   icfe = 1, ifsc = 1, clambda = 0.5, scalpha = 0.5, scbeta = 12.0,
   logdvdl = 0,
   timask1 = ':BNZ', timask2 = ':PHN',
   scmask1 = ':BNZ@H6', scmask2 = ':PHN@O1,H6'
 /
 &ewald
 /

Note: ig = -1. Setting random seed to   848001 based on wallclock time in
      microseconds.

--------------------------------------------------------------------------------
   1.  RESOURCE   USE:
--------------------------------------------------------------------------------

 getting box info from netcdf restart file
 NATOM  =   30553 NTYPES =      17 NBONH =   29246 MBONA  =    1323
 NTHETH =    2992 MTHETA =    1779 NPHIH =    6075 MPHIA  =    5535
 NHPARM =       0 NPARM  =       0 NNB   =   51644 NRES   =    9475
 NBONA  =    1323 NTHETA =    1779 NPHIA =    5535 NUMBND =      69
 NUMANG =     153 NPTRA  =     180 NATYP =      38 NPHB   =       1
 IFBOX  =       1 NMXRS  =      24 IFCAP =       0 NEXTRA =       0
 NCOPY  =       0

     BOX TYPE: RECTILINEAR

--------------------------------------------------------------------------------
   2.  CONTROL  DATA  FOR  THE  RUN
--------------------------------------------------------------------------------

default_name

General flags:
     imin    =       0, nmropt  =       0

Nature and format of input:
     ntx     =       5, irest   =       1, ntrx    =       1

Nature and format of output:
     ntxo    =       2, ntpr    =    1000, ntrx    =       1, ntwr    =    5000
     iwrap   =       1, ntwx    =    1000, ntwv    =       0, ntwe    =    1000
     ioutfm  =       1, ntwprt  =       0, idecomp =       0, rbornstat=      0

Potential function:
     ntf     =       1, ntb     =       2, igb     =       0, nsnb    =      25
     ipol    =       0, gbsa    =       0, iesp    =       0
     dielc   =   1.00000, cut     =   8.00000, intdiel =   1.00000

Frozen or restrained atoms:
     ibelly  =       0, ntr     =       1
     restraint_wt =   5.00000

Molecular dynamics:
     nstlim  =     10000, nscm    =         0, nrespa  =         1
     t       =   0.00000, dt      =   0.00200, vlimit  =  20.00000

Berendsen (weak-coupling) temperature regulation:
     temp0   = 300.00000, tempi   =   0.00000, tautp   =   1.00000

Pressure regulation:
     ntp     =       1
     pres0   =   1.00000, comp    =  44.60000, taup    =   2.00000

SHAKE:
     ntc     =       2, jfastw  =       0
     tol     =   0.00001

Free energy options:
     icfe    =       1, ifsc    =       1, klambda =       1
     clambda =  0.5000, scalpha =  0.5000, scbeta  = 12.0000
     sceeorder =       2
     dynlmb =  0.0000 logdvdl =       0

Ewald parameters:
     verbose =       0, ew_type =       0, nbflag  =       1, use_pme =       1
     vdwmeth =       1, eedmeth =       1, netfrc  =       1
     Box X =   66.461   Box Y =   70.863   Box Z =   79.558
     Alpha =   90.000   Beta  =   90.000   Gamma =   90.000
     NFFT1 =   72       NFFT2 =   72       NFFT3 =   80
     Cutoff=    8.000   Tol   =0.100E-04
     Ewald Coefficient =  0.34864
     Interpolation order =    4

    LOADING THE CONSTRAINED ATOMS AS GROUPS

   5.  REFERENCE ATOM COORDINATES

  default_name
     Mask !:WAT & !@H=; matches  1307 atoms
     TI Mask 1 :BNZ; matches     12 atoms
     TI Mask 2 :PHN; matches     13 atoms
     TI region 1:   30540 atoms
     TI region 2:   30541 atoms
     SC Mask 1 :BNZ@H6; matches      1 atoms
     SC Mask 2 :PHN@O1,H6; matches      2 atoms

--------------------------------------------------------------------------------
   3.  ATOMIC COORDINATES AND VELOCITIES
--------------------------------------------------------------------------------

default_name
 begin time read from input coords =    20.000 ps

     Molecule     1 is partially softcore
     Molecule     2 is partially softcore
 Number of triangulated 3-point waters found:     9307
 WARNING: SHAKEn bond for atoms       12       11 is partially softcore.
 Coordinates for common atoms will be synchronized from V0.
 Consider using noshake mask or disabling SHAKE.

 Number of shake restraints removed in TI region  1 :        0
 Number of shake restraints removed in TI region  2 :        0

     Sum of charges for TI region  1 =   0.00039993
     Forcing neutrality...

     Sum of charges for TI region  2 =   0.00040093
     Forcing neutrality...

--------------------------------------------------------------------------------
   4.  RESULTS
 NSTEP =     1000   TIME(PS) =      22.000  TEMP(K) =   290.64  PRESS =  -429.5
 Etot   =    -73073.4526  EKtot   =     18013.7374  EPtot      =    -91087.1900
 BOND   =       387.0556  ANGLE   =       995.9176  DIHED      =      1988.0628
 1-4 NB =       615.7016  1-4 EEL =      5947.0792  VDWAALS    =     11377.1098
 EELEC  =   -112643.4739  EHBOND  =         0.0000  RESTRAINT  =       245.3572
 EAMBER (non-restraint)  =    -91332.5472
 EKCMT  =      8202.1938  VIRIAL  =     11614.0370  VOLUME     =    367956.5558
                                                    Density    =         0.8405
 DV/DL  =         4.1878
 Ewald error estimate:   0.7793E-04
 ------------------------------------------------------------------------------

      A V E R A G E S   O V E R      10 S T E P S

 NSTEP =    10000   TIME(PS) =      40.000  TEMP(K) =   298.81  PRESS =  -398.4
 Etot   =    -72611.6157  EKtot   =     18520.4762  EPtot      =    -91132.0919
 BOND   =       427.3286  ANGLE   =      1077.3332  DIHED      =      2022.4101
 1-4 NB =       615.7933  1-4 EEL =      5959.3361  VDWAALS    =     11229.8573
 EELEC  =   -112723.5726  EHBOND  =         0.0000  RESTRAINT  =       259.4221
 EAMBER (non-restraint)  =    -91391.5141
 EKCMT  =      8449.1269  VIRIAL  =     11364.8936  VOLUME     =    338529.4506
                                                    Density    =         0.9164
 DV/DL  =         6.1294
 Ewald error estimate:   0.6072E-04
 ------------------------------------------------------------------------------

      R M S  F L U C T U A T I O N S

 NSTEP =    10000   TIME(PS) =      40.000  TEMP(K) =     3.21  PRESS =    92.8
 Etot   =       339.3151  EKtot   =       198.7268  EPtot      =       344.4568
 BOND   =        28.0575  ANGLE   =        47.9877  DIHED      =        17.4056
 1-4 NB =         4.2929  1-4 EEL =        23.3080  VDWAALS    =       115.5743
 EELEC  =       367.3373  EHBOND  =         0.0000  RESTRAINT  =         9.9582
 EAMBER (non-restraint)  =       334.4986
 EKCMT  =       104.2407  VIRIAL  =       691.5312  VOLUME     =     19020.3031
                                                    Density    =         0.0514
 DV/DL  =         1.6899
 Ewald error estimate:   0.4992E-04
 ------------------------------------------------------------------------------

      A V E R A G E S   O V E R      10 S T E P S

 NSTEP =    10000   TIME(PS) =      40.000  TEMP(K) =   298.81  PRESS =  -398.4
 Etot   =    -72610.6433  EKtot   =     18521.4486  EPtot      =    -91132.0919
 BOND   =       427.3286  ANGLE   =      1077.3332  DIHED      =      2022.4101
 1-4 NB =       615.7933  1-4 EEL =      5959.3361  VDWAALS    =     11229.8573
 EELEC  =   -112723.5726  EHBOND  =         0.0000  RESTRAINT  =       259.4221
 EAMBER (non-restraint)  =    -91391.5141
 EKCMT  =      8449.1269  VIRIAL  =     11364.8936  VOLUME     =    338529.4506
                                                    Density    =         0.9165
 DV/DL  =         6.1294
 Ewald error estimate:   0.6072E-04
 ------------------------------------------------------------------------------

      R M S  F L U C T U A T I O N S

 NSTEP =    10000   TIME(PS) =      40.000  TEMP(K) =     3.21  PRESS =    92.8
 Etot   =       339.7726  EKtot   =       199.0482  EPtot      =       344.4568
 BOND   =        28.0575  ANGLE   =        47.9877  DIHED      =        17.4056
 1-4 NB =         4.2929  1-4 EEL =        23.3080  VDWAALS    =       115.5743
 EELEC  =       367.3373  EHBOND  =         0.0000  RESTRAINT  =         9.9582
 EAMBER (non-restraint)  =       334.4986
 EKCMT  =       104.2407  VIRIAL  =       691.5312  VOLUME     =     19020.3031
                                                    Density    =         0.0514
 DV/DL  =         1.6899
 Ewald error estimate:   0.4992E-04
 ------------------------------------------------------------------------------

      DV/DL, AVERAGES OVER      10 STEPS

 NSTEP =    10000   TIME(PS) =      40.000  TEMP(K) =     3.21  PRESS =     0.0
 Etot   =         0.0000  EKtot   =         0.0000  EPtot      =         6.1294
 BOND   =         0.0000  ANGLE   =        -0.0000  DIHED      =         0.0000
 1-4 NB =        -0.0000  1-4 EEL =        -8.1563  VDWAALS    =         1.0868
 EELEC  =        13.1989  EHBOND  =         0.0000  RESTRAINT  =         0.0000
 EAMBER (non-restraint)  =         6.1294
 EKCMT  =         0.0000  VIRIAL  =         0.0000  VOLUME     =         0.0000
                                                    Density    =         0.0000
 DV/DL  =         6.1294
 Ewald error estimate:   0.0000E+00
 ------------------------------------------------------------------------------
