-------------------------------------------------------
          Amber 16 PMEMD                              2016
          -------------------------------------------------------

  [-O]verwriting output

File Assignments:

 Here is the input file:

TI simulation
 &cntrl
   imin = 0, nstlim = 100000, irest = 1, ntx = 5, dt = 0.002,
   ntt = 3, temp0 = 300.0, gamma_ln = 2.0, ig = -1,
   vlimit = 20,
   ntc = 2, ntf = 1,
   ntb = 2,
   ntp = 1, pres0 = 1.0, taup = 2.0,
   ioutfm = 1, iwrap = 1,
   ntwe = 1000, ntwx = 10000, ntpr = 10000, ntwr = 20000,

   icfe = 1, clambda = 0.000, scalpha = 0.5, scbeta = 12.0,
   logdvdl = 1,
   ifmbar = 1, bar_intervall = 1000, mbar_states = 11,
   mbar_lambda = 0.0,0.1,0.2,0.3,0.4,0.5,0.6,0.7,0.8,0.9,1.0,
   timask1 = ':1', timask2 = ':2',
   ifsc = 0, crgmask = ':1@H7'
 /

 &ewald
 /

Note: ig = -1. Setting random seed to   207289 based on wallclock time in
      microseconds.

--------------------------------------------------------------------------------
   1.  RESOURCE   USE:
--------------------------------------------------------------------------------

 getting box info from netcdf restart file
 NATOM  =    1832 NTYPES =       5 NBONH =    1818 MBONA  =      14
 NTHETH =    1828 MTHETA =      16 NPHIH =      36 MPHIA  =      16
 NHPARM =       0 NPARM  =       0 NNB   =    2522 NRES   =     604
 NBONA  =      14 NTHETA =      16 NPHIA =      16 NUMBND =       6
 NUMANG =       6 NPTRA  =       2 NATYP =       6 NPHB   =       0
 IFBOX  =       1 NMXRS  =      13 IFCAP =       0 NEXTRA =       0
 NCOPY  =       0

     BOX TYPE: RECTILINEAR

--------------------------------------------------------------------------------
   2.  CONTROL  DATA  FOR  THE  RUN
--------------------------------------------------------------------------------

NIL

General flags:
     imin    =       0, nmropt  =       0

Nature and format of input:
     ntx     =       5, irest   =       1, ntrx    =       1

Nature and format of output:
     ntxo    =       2, ntpr    =   10000, ntrx    =       1, ntwr    =   20000
     iwrap   =       1, ntwx    =   10000, ntwv    =       0, ntwe    =    1000
     ioutfm  =       1, ntwprt  =       0, idecomp =       0, rbornstat=      0

Potential function:
     ntf     =       1, ntb     =       2, igb     =       0, nsnb    =      25
     ipol    =       0, gbsa    =       0, iesp    =       0
     dielc   =   1.00000, cut     =   8.00000, intdiel =   1.00000

Frozen or restrained atoms:
     ibelly  =       0, ntr     =       0

Molecular dynamics:
     nstlim  =    100000, nscm    =      1000, nrespa  =         1
     t       =   0.00000, dt      =   0.00200, vlimit  =  20.00000

Langevin dynamics temperature regulation:
     ig      =  207289
     temp0   = 300.00000, tempi   =   0.00000, gamma_ln=   2.00000

Pressure regulation:
     ntp     =       1
     pres0   =   1.00000, comp    =  44.60000, taup    =   2.00000

SHAKE:
     ntc     =       2, jfastw  =       0
     tol     =   0.00001

Free energy options:
     icfe    =       1, ifsc    =       0, klambda =       1
     clambda =  0.0000, scalpha =  0.5000, scbeta  = 12.0000
     sceeorder =       2
     dynlmb =  0.0000 logdvdl =       1

FEP MBAR options:
     ifmbar  =       1,  bar_intervall =     1000
     mbar_states =      11

Ewald parameters:
     verbose =       0, ew_type =       0, nbflag  =       1, use_pme =       1
     vdwmeth =       1, eedmeth =       1, netfrc  =       1
     Box X =   29.219   Box Y =   29.414   Box Z =   30.661
     Alpha =   90.000   Beta  =   90.000   Gamma =   90.000
     NFFT1 =   32       NFFT2 =   32       NFFT3 =   32
     Cutoff=    8.000   Tol   =0.100E-04
     Ewald Coefficient =  0.34864
     Interpolation order =    4
     TI Mask 1 :1; matches     13 atoms
     TI Mask 2 :2; matches     13 atoms
     TI region 1:    1819 atoms
     TI region 2:    1819 atoms
Removing charge of       0.4181 from atom      13
Total charge of   0.41807699 removed from       1 atoms

    MBAR - lambda values considered:
      11 total:  0.0000 0.1000 0.2000 0.3000 0.4000 0.5000 0.6000 0.7000 0.8000 0.9000 1.0000
    Extra energies will be computed    100 times.
     Checking for mismatched coordinates.

--------------------------------------------------------------------------------
   3.  ATOMIC COORDINATES AND VELOCITIES
--------------------------------------------------------------------------------

NIL
 begin time read from input coords =    20.000 ps

 Number of triangulated 3-point waters found:      602

     Sum of charges for TI region  1 =  -0.41807467
     Assuming uniform neutralizing plasma

     Sum of charges for TI region  2 =   0.00000232
     Forcing neutrality...

--------------------------------------------------------------------------------
   4.  RESULTS
 NSTEP =    10000   TIME(PS) =      40.000  TEMP(K) =   298.07  PRESS =  -802.9
 Etot   =     -4668.7687  EKtot   =      1079.4956  EPtot      =     -5748.2643
 BOND   =         5.0302  ANGLE   =         4.3192  DIHED      =         3.9124
 1-4 NB =        12.0933  1-4 EEL =       -14.5105  VDWAALS    =       852.2185
 EELEC  =     -6611.3275  EHBOND  =         0.0000  RESTRAINT  =         0.0000
 EKCMT  =         3.9782  VIRIAL  =       331.8829  VOLUME     =     18915.8865
                                                    Density    =         0.9604
 DV/DL  =        47.2050
 ------------------------------------------------------------------------------

      A V E R A G E S   O V E R      10 S T E P S

 NSTEP =   100000   TIME(PS) =     220.000  TEMP(K) =   299.57  PRESS =   681.1
 Etot   =     -4693.8061  EKtot   =      1084.9453  EPtot      =     -5778.7513
 BOND   =         3.5965  ANGLE   =         3.5709  DIHED      =         2.8759
 1-4 NB =        12.2632  1-4 EEL =       -13.8866  VDWAALS    =       855.3337
 EELEC  =     -6642.5050  EHBOND  =         0.0000  RESTRAINT  =         0.0000
 EKCMT  =         2.2368  VIRIAL  =      -267.1462  VOLUME     =     18419.7119
                                                    Density    =         0.9864
 DV/DL  =        36.9828
 ------------------------------------------------------------------------------

      R M S  F L U C T U A T I O N S

 NSTEP =   100000   TIME(PS) =     220.000  TEMP(K) =     8.61  PRESS =   718.6
 Etot   =        53.7687  EKtot   =        31.1756  EPtot      =        38.5490
 BOND   =         2.2297  ANGLE   =         1.3274  DIHED      =         1.1073
 1-4 NB =         1.4354  1-4 EEL =         0.4900  VDWAALS    =        20.6236
 EELEC  =        48.4668  EHBOND  =         0.0000  RESTRAINT  =         0.0000
 EKCMT  =         1.1301  VIRIAL  =       287.7441  VOLUME     =       225.3784
                                                    Density    =         0.0120
 DV/DL  =         9.9742
 ------------------------------------------------------------------------------

      A V E R A G E S   O V E R      10 S T E P S

 NSTEP =   100000   TIME(PS) =     220.000  TEMP(K) =   299.57  PRESS =   681.1
 Etot   =     -4693.8061  EKtot   =      1084.9453  EPtot      =     -5778.7513
 BOND   =         3.5965  ANGLE   =         3.5709  DIHED      =         2.8759
 1-4 NB =        12.2632  1-4 EEL =       -13.8866  VDWAALS    =       855.3337
 EELEC  =     -6642.5050  EHBOND  =         0.0000  RESTRAINT  =         0.0000
 EKCMT  =         2.2368  VIRIAL  =      -267.1462  VOLUME     =     18419.7119
                                                    Density    =         0.9864
 DV/DL  =        36.9828
 ------------------------------------------------------------------------------

      R M S  F L U C T U A T I O N S

 NSTEP =   100000   TIME(PS) =     220.000  TEMP(K) =     8.61  PRESS =   718.6
 Etot   =        53.7687  EKtot   =        31.1756  EPtot      =        38.5490
 BOND   =         2.2297  ANGLE   =         1.3274  DIHED      =         1.1073
 1-4 NB =         1.4354  1-4 EEL =         0.4900  VDWAALS    =        20.6236
 EELEC  =        48.4668  EHBOND  =         0.0000  RESTRAINT  =         0.0000
 EKCMT  =         1.1301  VIRIAL  =       287.7441  VOLUME     =       225.3784
                                                    Density    =         0.0120
 DV/DL  =         9.9742
 ------------------------------------------------------------------------------

      DV/DL, AVERAGES OVER      10 STEPS

 NSTEP =   100000   TIME(PS) =     220.000  TEMP(K) =     8.61  PRESS =     0.0
 Etot   =         0.0000  EKtot   =         0.0000  EPtot      =        36.9828
 BOND   =         0.0000  ANGLE   =         0.0000  DIHED      =         0.0000
 1-4 NB =         0.0000  1-4 EEL =       -21.7133  VDWAALS    =         0.0000
 EELEC  =        58.6960  EHBOND  =         0.0000  RESTRAINT  =         0.0000
 EKCMT  =         0.0000  VIRIAL  =         0.0000  VOLUME     =         0.0000
                                                    Density    =         0.0000
 DV/DL  =        36.9828
 ------------------------------------------------------------------------------
