-------------------------------------------------------
          Amber 18 PMEMD                              2018
          -------------------------------------------------------

  [-O]verwriting output

File Assignments:

 Here is the input file:

TI simulation
 &cntrl
   imin = 0, nstlim = 100000, irest = 1, ntx = 5, dt = 0.002,
   ntt = 3, temp0 = 300.0, gamma_ln = 2.0, ig = -1,
   ntc = 2, ntf = 1,
   ntb = 2,
   ntp = 1, pres0 = 1.0, taup = 2.0,
   ioutfm = 1, iwrap = 1,
   ntwe = 1000, ntwx = 10000, ntpr = 10000, ntwr = 20000,

   icfe = 1, clambda = 0.6, scalpha = 0.5, scbeta = 12.0,
   logdvdl = 1,
   ifmbar = 1, bar_intervall = 1000, mbar_states = 11,
   mbar_lambda = 0.0, 0.1, 0.2, 0.3, 0.4, 0.5, 0.6, 0.7, 0.8, 0.9, 1.0,
   timask1 = ':1', timask2 = ':2',
   ifsc = 0, crgmask = ':1@O1,H6',
 /

 &ewald
 /

Note: ig = -1. Setting random seed to   392532 based on wallclock time in
      microseconds and disabling the synchronization of random numbers
      between tasks to improve performance.

--------------------------------------------------------------------------------
   1.  RESOURCE   USE:
--------------------------------------------------------------------------------

 getting box info from netcdf restart file
 NATOM  =   30554 NTYPES =      17 NBONH =   29246 MBONA  =    1324
 NTHETH =    2991 MTHETA =    1781 NPHIH =    6074 MPHIA  =    5537
 NHPARM =       0 NPARM  =       0 NNB   =   51648 NRES   =    9475
 NBONA  =    1324 NTHETA =    1781 NPHIA =    5537 NUMBND =      69
 NUMANG =     153 NPTRA  =     180 NATYP =      38 NPHB   =       1
 IFBOX  =       1 NMXRS  =      24 IFCAP =       0 NEXTRA =       0
 NCOPY  =       0

     BOX TYPE: RECTILINEAR

--------------------------------------------------------------------------------
   2.  CONTROL  DATA  FOR  THE  RUN
--------------------------------------------------------------------------------

default_name

General flags:
     imin    =       0, nmropt  =       0

Nature and format of input:
     ntx     =       5, irest   =       1, ntrx    =       1

Nature and format of output:
     ntxo    =       2, ntpr    =   10000, ntrx    =       1, ntwr    =   20000
     iwrap   =       1, ntwx    =   10000, ntwv    =       0, ntwe    =    1000
     ioutfm  =       1, ntwprt  =       0, idecomp =       0, rbornstat=      0

Potential function:
     ntf     =       1, ntb     =       2, igb     =       0, nsnb    =      25
     ipol    =       0, gbsa    =       0, iesp    =       0
     dielc   =   1.00000, cut     =   8.00000, intdiel =   1.00000

Frozen or restrained atoms:
     ibelly  =       0, ntr     =       0

Molecular dynamics:
     nstlim  =    100000, nscm    =      1000, nrespa  =         1
     t       =   0.00000, dt      =   0.00200, vlimit  =  20.00000

Langevin dynamics temperature regulation:
     ig      =  392532
     temp0   = 300.00000, tempi   =   0.00000, gamma_ln=   2.00000

Pressure regulation:
     ntp     =       1
     pres0   =   1.00000, comp    =  44.60000, taup    =   2.00000

SHAKE:
     ntc     =       2, jfastw  =       0
     tol     =   0.00001

Free energy options:
     icfe    =       1, ifsc    =       0, klambda =       1
     clambda =  0.6000, scalpha =  0.5000, scbeta  = 12.0000
     sceeorder =       2
     dynlmb =  0.0000 logdvdl =       1

FEP MBAR options:
     ifmbar  =       1,  bar_intervall =     1000
     mbar_states =      11

Ewald parameters:
     verbose =       0, ew_type =       0, nbflag  =       1, use_pme =       1
     vdwmeth =       1, eedmeth =       1, netfrc  =       1
     Box X =   68.526   Box Y =   72.839   Box Z =   81.366
     Alpha =   90.000   Beta  =   90.000   Gamma =   90.000
     NFFT1 =   72       NFFT2 =   75       NFFT3 =   90
     Cutoff=    8.000   Tol   =0.100E-04
     Ewald Coefficient =  0.34864
     Interpolation order =    4

     TI Mask 1 :1; matches     13 atoms
     TI Mask 2 :2; matches     13 atoms
     TI region 1:   30541 atoms
     TI region 2:   30541 atoms
Removing charge of      -0.5539 from atom      12
Removing charge of       0.3791 from atom      13
Total charge of  -0.17486000 removed from       2 atoms

    MBAR - lambda values considered:
      11 total:  0.0000 0.1000 0.2000 0.3000 0.4000 0.5000 0.6000 0.7000 0.8000 0.9000 1.0000
    Extra energies will be computed    100 times.
     Checking for mismatched coordinates.

--------------------------------------------------------------------------------
   3.  ATOMIC COORDINATES AND VELOCITIES
--------------------------------------------------------------------------------

default_name
 begin time read from input coords =    20.000 ps

 Number of triangulated 3-point waters found:     9307

     Sum of charges for TI region  1 =   0.17526093
     Assuming uniform neutralizing plasma

     Sum of charges for TI region  2 =   0.00040093
     Forcing neutrality...

--------------------------------------------------------------------------------
   4.  RESULTS
 NSTEP =    10000   TIME(PS) =      40.000  TEMP(K) =   298.81  PRESS =   -66.3
 Etot   =    -72695.5426  EKtot   =     18520.9993  EPtot      =    -91216.5418
 BOND   =       514.4504  ANGLE   =      1240.6130  DIHED      =      2040.2231
 1-4 NB =       593.4646  1-4 EEL =      5865.8493  VDWAALS    =     11579.1075
 EELEC  =   -113050.2498  EHBOND  =         0.0000  RESTRAINT  =         0.0000
 EKCMT  =      8292.5346  VIRIAL  =      8815.9113  VOLUME     =    365726.8841
                                                    Density    =         0.8457
 DV/DL  =       -34.7112
 Ewald error estimate:   0.3364E-04
 ------------------------------------------------------------------------------

      A V E R A G E S   O V E R      10 S T E P S

 NSTEP =   100000   TIME(PS) =     220.000  TEMP(K) =   300.19  PRESS =   -61.7
 Etot   =    -73861.8541  EKtot   =     18606.6055  EPtot      =    -92468.4596
 BOND   =       498.2136  ANGLE   =      1254.4494  DIHED      =      2044.6220
 1-4 NB =       609.7206  1-4 EEL =      5896.8417  VDWAALS    =     11479.2495
 EELEC  =   -114251.5564  EHBOND  =         0.0000  RESTRAINT  =         0.0000
 EKCMT  =      8370.6352  VIRIAL  =      8792.8354  VOLUME     =    314316.7091
                                                    Density    =         0.9870
 DV/DL  =       -35.2035
 Ewald error estimate:   0.5119E-04
 ------------------------------------------------------------------------------

      R M S  F L U C T U A T I O N S

 NSTEP =   100000   TIME(PS) =     220.000  TEMP(K) =     1.84  PRESS =   105.5
 Etot   =       487.1927  EKtot   =       114.1132  EPtot      =       502.4740
 BOND   =        19.8952  ANGLE   =        29.9893  DIHED      =        14.3291
 1-4 NB =        10.4821  1-4 EEL =        24.0589  VDWAALS    =       133.4661
 EELEC  =       520.1172  EHBOND  =         0.0000  RESTRAINT  =         0.0000
 EKCMT  =        79.6592  VIRIAL  =       744.0402  VOLUME     =     18359.5329
                                                    Density    =         0.0513
 DV/DL  =         1.0702
 Ewald error estimate:   0.4840E-04
 ------------------------------------------------------------------------------

      A V E R A G E S   O V E R      10 S T E P S

 NSTEP =   100000   TIME(PS) =     220.000  TEMP(K) =   300.19  PRESS =   -61.7
 Etot   =    -73861.8541  EKtot   =     18606.6055  EPtot      =    -92468.4596
 BOND   =       498.2136  ANGLE   =      1254.4494  DIHED      =      2044.6220
 1-4 NB =       609.7206  1-4 EEL =      5896.8417  VDWAALS    =     11479.2495
 EELEC  =   -114251.5564  EHBOND  =         0.0000  RESTRAINT  =         0.0000
 EKCMT  =      8370.6352  VIRIAL  =      8792.8354  VOLUME     =    314316.7091
                                                    Density    =         0.9870
 DV/DL  =       -35.2035
 Ewald error estimate:   0.5119E-04
 ------------------------------------------------------------------------------

      R M S  F L U C T U A T I O N S

 NSTEP =   100000   TIME(PS) =     220.000  TEMP(K) =     1.84  PRESS =   105.5
 Etot   =       487.1927  EKtot   =       114.1132  EPtot      =       502.4740
 BOND   =        19.8952  ANGLE   =        29.9893  DIHED      =        14.3291
 1-4 NB =        10.4821  1-4 EEL =        24.0589  VDWAALS    =       133.4661
 EELEC  =       520.1172  EHBOND  =         0.0000  RESTRAINT  =         0.0000
 EKCMT  =        79.6592  VIRIAL  =       744.0402  VOLUME     =     18359.5329
                                                    Density    =         0.0513
 DV/DL  =         1.0702
 Ewald error estimate:   0.4840E-04
 ------------------------------------------------------------------------------

      DV/DL, AVERAGES OVER      10 STEPS

 NSTEP =   100000   TIME(PS) =     220.000  TEMP(K) =     1.84  PRESS =     0.0
 Etot   =         0.0000  EKtot   =         0.0000  EPtot      =       -35.2035
 BOND   =         0.0000  ANGLE   =         0.0000  DIHED      =         0.0000
 1-4 NB =        -0.0000  1-4 EEL =       -38.9795  VDWAALS    =         0.0000
 EELEC  =         3.7760  EHBOND  =         0.0000  RESTRAINT  =         0.0000
 EKCMT  =         0.0000  VIRIAL  =         0.0000  VOLUME     =         0.0000
                                                    Density    =         0.0000
 DV/DL  =       -35.2035
 Ewald error estimate:   0.0000E+00
 ------------------------------------------------------------------------------
