-------------------------------------------------------
          Amber 18 PMEMD                              2018
          -------------------------------------------------------

  [-O]verwriting output

File Assignments:

 Here is the input file:

TI simulation
 &cntrl
   imin = 0, nstlim = 100000, irest = 1, ntx = 5, dt = 0.002,
   ntt = 3, temp0 = 300.0, gamma_ln = 2.0, ig = -1,
   ntc = 2, ntf = 1,
   ntb = 2,
   ntp = 1, pres0 = 1.0, taup = 2.0,
   ioutfm = 1, iwrap = 1,
   ntwe = 1000, ntwx = 10000, ntpr = 10000, ntwr = 20000,

   icfe = 1, clambda = 0.4, scalpha = 0.5, scbeta = 12.0,
   logdvdl = 1,
   ifmbar = 1, bar_intervall = 1000, mbar_states = 11,
   mbar_lambda = 0.0, 0.1, 0.2, 0.3, 0.4, 0.5, 0.6, 0.7, 0.8, 0.9, 1.0,
   timask1 = ':1', timask2 = ':2',
   ifsc = 0, crgmask = ':1@O1,H6',
 /

 &ewald
 /

Note: ig = -1. Setting random seed to   240926 based on wallclock time in
      microseconds.

--------------------------------------------------------------------------------
   1.  RESOURCE   USE:
--------------------------------------------------------------------------------

 getting box info from netcdf restart file
 NATOM  =    2633 NTYPES =       6 NBONH =    2619 MBONA  =      14
 NTHETH =      22 MTHETA =      16 NPHIH =      46 MPHIA  =      16
 NHPARM =       0 NPARM  =       0 NNB   =    3588 NRES   =     871
 NBONA  =      14 NTHETA =      16 NPHIA =      16 NUMBND =       6
 NUMANG =       4 NPTRA  =       3 NATYP =       6 NPHB   =       1
 IFBOX  =       1 NMXRS  =      13 IFCAP =       0 NEXTRA =       0
 NCOPY  =       0

     BOX TYPE: RECTILINEAR

--------------------------------------------------------------------------------
   2.  CONTROL  DATA  FOR  THE  RUN
--------------------------------------------------------------------------------

default_name

General flags:
     imin    =       0, nmropt  =       0

Nature and format of input:
     ntx     =       5, irest   =       1, ntrx    =       1

Nature and format of output:
     ntxo    =       2, ntpr    =   10000, ntrx    =       1, ntwr    =   20000
     iwrap   =       1, ntwx    =   10000, ntwv    =       0, ntwe    =    1000
     ioutfm  =       1, ntwprt  =       0, idecomp =       0, rbornstat=      0

Potential function:
     ntf     =       1, ntb     =       2, igb     =       0, nsnb    =      25
     ipol    =       0, gbsa    =       0, iesp    =       0
     dielc   =   1.00000, cut     =   8.00000, intdiel =   1.00000

Frozen or restrained atoms:
     ibelly  =       0, ntr     =       0

Molecular dynamics:
     nstlim  =    100000, nscm    =      1000, nrespa  =         1
     t       =   0.00000, dt      =   0.00200, vlimit  =  20.00000

Langevin dynamics temperature regulation:
     ig      =  240926
     temp0   = 300.00000, tempi   =   0.00000, gamma_ln=   2.00000

Pressure regulation:
     ntp     =       1
     pres0   =   1.00000, comp    =  44.60000, taup    =   2.00000

SHAKE:
     ntc     =       2, jfastw  =       0
     tol     =   0.00001

Free energy options:
     icfe    =       1, ifsc    =       0, klambda =       1
     clambda =  0.4000, scalpha =  0.5000, scbeta  = 12.0000
     sceeorder =       2
     dynlmb =  0.0000 logdvdl =       1

FEP MBAR options:
     ifmbar  =       1,  bar_intervall =     1000
     mbar_states =      11

Ewald parameters:
     verbose =       0, ew_type =       0, nbflag  =       1, use_pme =       1
     vdwmeth =       1, eedmeth =       1, netfrc  =       1
     Box X =   33.673   Box Y =   34.999   Box Z =   35.659
     Alpha =   90.000   Beta  =   90.000   Gamma =   90.000
     NFFT1 =   36       NFFT2 =   36       NFFT3 =   36
     Cutoff=    8.000   Tol   =0.100E-04
     Ewald Coefficient =  0.34864
     Interpolation order =    4
     TI Mask 1 :1; matches     13 atoms
     TI Mask 2 :2; matches     13 atoms
     TI region 1:    2620 atoms
     TI region 2:    2620 atoms
Removing charge of      -0.5539 from atom      12
Removing charge of       0.3791 from atom      13
Total charge of  -0.17486000 removed from       2 atoms

    MBAR - lambda values considered:
      11 total:  0.0000 0.1000 0.2000 0.3000 0.4000 0.5000 0.6000 0.7000 0.8000 0.9000 1.0000
    Extra energies will be computed    100 times.
     Checking for mismatched coordinates.

--------------------------------------------------------------------------------
   3.  ATOMIC COORDINATES AND VELOCITIES
--------------------------------------------------------------------------------

default_name
 begin time read from input coords =    20.000 ps

 Number of triangulated 3-point waters found:      869

     Sum of charges for TI region  1 =   0.17486100
     Assuming uniform neutralizing plasma

     Sum of charges for TI region  2 =   0.00000100
     Forcing neutrality...

--------------------------------------------------------------------------------
   4.  RESULTS
 NSTEP =    10000   TIME(PS) =      40.000  TEMP(K) =   304.24  PRESS =  -157.0
 Etot   =     -6451.3003  EKtot   =      1586.1144  EPtot      =     -8037.4146
 BOND   =         0.8094  ANGLE   =         0.5925  DIHED      =         1.8436
 1-4 NB =         3.2780  1-4 EEL =       -24.6914  VDWAALS    =      1289.7852
 EELEC  =     -9309.0320  EHBOND  =         0.0000  RESTRAINT  =         0.0000
 EKCMT  =       765.8294  VIRIAL  =       879.4592  VOLUME     =     33525.4637
                                                    Density    =         0.7801
 DV/DL  =       -30.6682
 Ewald error estimate:   0.3897E-03
 ------------------------------------------------------------------------------

      A V E R A G E S   O V E R      10 S T E P S

 NSTEP =   100000   TIME(PS) =     220.000  TEMP(K) =   300.35  PRESS =   -28.5
 Etot   =     -6734.1442  EKtot   =      1565.8560  EPtot      =     -8300.0002
 BOND   =         2.5123  ANGLE   =         3.0063  DIHED      =         2.9708
 1-4 NB =         3.8591  1-4 EEL =       -24.7682  VDWAALS    =      1242.2283
 EELEC  =     -9529.8087  EHBOND  =         0.0000  RESTRAINT  =         0.0000
 EKCMT  =       788.8771  VIRIAL  =       808.1632  VOLUME     =     27279.3023
                                                    Density    =         0.9634
 DV/DL  =       -32.1439
 Ewald error estimate:   0.2424E-03
 ------------------------------------------------------------------------------

      R M S  F L U C T U A T I O N S

 NSTEP =   100000   TIME(PS) =     220.000  TEMP(K) =     6.64  PRESS =   378.3
 Etot   =       108.1904  EKtot   =        34.5943  EPtot      =        96.7297
 BOND   =         1.5320  ANGLE   =         1.4152  DIHED      =         1.7007
 1-4 NB =         0.4576  1-4 EEL =         0.4226  VDWAALS    =        44.7795
 EELEC  =        96.5142  EHBOND  =         0.0000  RESTRAINT  =         0.0000
 EKCMT  =        21.4606  VIRIAL  =       212.3573  VOLUME     =      2087.0087
                                                    Density    =         0.0613
 DV/DL  =         0.8855
 Ewald error estimate:   0.1469E-03
 ------------------------------------------------------------------------------

      A V E R A G E S   O V E R      10 S T E P S

 NSTEP =   100000   TIME(PS) =     220.000  TEMP(K) =   300.35  PRESS =   -28.5
 Etot   =     -6734.1442  EKtot   =      1565.8560  EPtot      =     -8300.0002
 BOND   =         2.5123  ANGLE   =         3.0063  DIHED      =         2.9708
 1-4 NB =         3.8591  1-4 EEL =       -24.7682  VDWAALS    =      1242.2283
 EELEC  =     -9529.8087  EHBOND  =         0.0000  RESTRAINT  =         0.0000
 EKCMT  =       788.8771  VIRIAL  =       808.1632  VOLUME     =     27279.3023
                                                    Density    =         0.9634
 DV/DL  =       -32.1439
 Ewald error estimate:   0.2424E-03
 ------------------------------------------------------------------------------

      R M S  F L U C T U A T I O N S

 NSTEP =   100000   TIME(PS) =     220.000  TEMP(K) =     6.64  PRESS =   378.3
 Etot   =       108.1904  EKtot   =        34.5943  EPtot      =        96.7297
 BOND   =         1.5320  ANGLE   =         1.4152  DIHED      =         1.7007
 1-4 NB =         0.4576  1-4 EEL =         0.4226  VDWAALS    =        44.7795
 EELEC  =        96.5142  EHBOND  =         0.0000  RESTRAINT  =         0.0000
 EKCMT  =        21.4606  VIRIAL  =       212.3573  VOLUME     =      2087.0087
                                                    Density    =         0.0613
 DV/DL  =         0.8855
 Ewald error estimate:   0.1469E-03
 ------------------------------------------------------------------------------

      DV/DL, AVERAGES OVER      10 STEPS

 NSTEP =   100000   TIME(PS) =     220.000  TEMP(K) =     6.64  PRESS =     0.0
 Etot   =         0.0000  EKtot   =         0.0000  EPtot      =       -32.1439
 BOND   =         0.0000  ANGLE   =        -0.0000  DIHED      =         0.0000
 1-4 NB =        -0.0000  1-4 EEL =       -38.3697  VDWAALS    =         0.0000
 EELEC  =         6.2258  EHBOND  =         0.0000  RESTRAINT  =         0.0000
 EKCMT  =         0.0000  VIRIAL  =         0.0000  VOLUME     =         0.0000
                                                    Density    =         0.0000
 DV/DL  =       -32.1439
 Ewald error estimate:   0.0000E+00
 ------------------------------------------------------------------------------
