-------------------------------------------------------
          Amber 18 PMEMD                              2018
          -------------------------------------------------------

  [-O]verwriting output

File Assignments:

 Here is the input file:

pressurising
 &cntrl
   imin = 0, nstlim = 10000, irest = 1, ntx = 5, dt = 0.002,
   ntt = 1, temp0 = 300.0, tautp = 1.0,
   ntp = 1, pres0 = 1.0, taup = 2.0,
   ntb = 2,
   ntc = 2, ntf = 1,
   ioutfm = 1, iwrap = 1,
   ntwe = 1000, ntwx = 1000, ntpr = 1000, ntwr = 5000,

   ntr = 1, restraint_wt = 5.00,
   restraintmask='!:WAT & !@H=',

   icfe = 1, ifsc = 1, clambda = 0.5, scalpha = 0.5, scbeta = 12.0,
   logdvdl = 0,
   timask1 = ':BNZ', timask2 = ':PHN',
   scmask1 = ':BNZ@H6', scmask2 = ':PHN@O1,H6'
 /
 &ewald
 /

Note: ig = -1. Setting random seed to   198366 based on wallclock time in
      microseconds.

--------------------------------------------------------------------------------
   1.  RESOURCE   USE:
--------------------------------------------------------------------------------

 getting box info from netcdf restart file
 NATOM  =    2632 NTYPES =       6 NBONH =    2619 MBONA  =      13
 NTHETH =      23 MTHETA =      14 NPHIH =      47 MPHIA  =      14
 NHPARM =       0 NPARM  =       0 NNB   =    3584 NRES   =     871
 NBONA  =      13 NTHETA =      14 NPHIA =      14 NUMBND =       6
 NUMANG =       4 NPTRA  =       3 NATYP =       6 NPHB   =       1
 IFBOX  =       1 NMXRS  =      13 IFCAP =       0 NEXTRA =       0
 NCOPY  =       0

     BOX TYPE: RECTILINEAR

--------------------------------------------------------------------------------
   2.  CONTROL  DATA  FOR  THE  RUN
--------------------------------------------------------------------------------

default_name

General flags:
     imin    =       0, nmropt  =       0

Nature and format of input:
     ntx     =       5, irest   =       1, ntrx    =       1

Nature and format of output:
     ntxo    =       2, ntpr    =    1000, ntrx    =       1, ntwr    =    5000
     iwrap   =       1, ntwx    =    1000, ntwv    =       0, ntwe    =    1000
     ioutfm  =       1, ntwprt  =       0, idecomp =       0, rbornstat=      0

Potential function:
     ntf     =       1, ntb     =       2, igb     =       0, nsnb    =      25
     ipol    =       0, gbsa    =       0, iesp    =       0
     dielc   =   1.00000, cut     =   8.00000, intdiel =   1.00000

Frozen or restrained atoms:
     ibelly  =       0, ntr     =       1
     restraint_wt =   5.00000

Molecular dynamics:
     nstlim  =     10000, nscm    =         0, nrespa  =         1
     t       =   0.00000, dt      =   0.00200, vlimit  =  20.00000

Berendsen (weak-coupling) temperature regulation:
     temp0   = 300.00000, tempi   =   0.00000, tautp   =   1.00000

Pressure regulation:
     ntp     =       1
     pres0   =   1.00000, comp    =  44.60000, taup    =   2.00000

SHAKE:
     ntc     =       2, jfastw  =       0
     tol     =   0.00001

Free energy options:
     icfe    =       1, ifsc    =       1, klambda =       1
     clambda =  0.5000, scalpha =  0.5000, scbeta  = 12.0000
     sceeorder =       2
     dynlmb =  0.0000 logdvdl =       0

Ewald parameters:
     verbose =       0, ew_type =       0, nbflag  =       1, use_pme =       1
     vdwmeth =       1, eedmeth =       1, netfrc  =       1
     Box X =   32.955   Box Y =   34.100   Box Z =   34.954
     Alpha =   90.000   Beta  =   90.000   Gamma =   90.000
     NFFT1 =   36       NFFT2 =   36       NFFT3 =   36
     Cutoff=    8.000   Tol   =0.100E-04
     Ewald Coefficient =  0.34864
     Interpolation order =    4

    LOADING THE CONSTRAINED ATOMS AS GROUPS

   5.  REFERENCE ATOM COORDINATES

  default_name
     Mask !:WAT & !@H=; matches    13 atoms
     TI Mask 1 :BNZ; matches     12 atoms
     TI Mask 2 :PHN; matches     13 atoms
     TI region 1:    2619 atoms
     TI region 2:    2620 atoms
     SC Mask 1 :BNZ@H6; matches      1 atoms
     SC Mask 2 :PHN@O1,H6; matches      2 atoms

--------------------------------------------------------------------------------
   3.  ATOMIC COORDINATES AND VELOCITIES
--------------------------------------------------------------------------------

default_name
 begin time read from input coords =    20.000 ps

     Molecule     1 is partially softcore
     Molecule     2 is partially softcore
 Number of triangulated 3-point waters found:      869
 WARNING: SHAKEn bond for atoms       11       12 is partially softcore.
 Coordinates for common atoms will be synchronized from V0.
 Consider using noshake mask or disabling SHAKE.

 Number of shake restraints removed in TI region  1 :        0
 Number of shake restraints removed in TI region  2 :        0

     Sum of charges for TI region  1 =   0.00000000
     Forcing neutrality...

     Sum of charges for TI region  2 =   0.00000100
     Forcing neutrality...

--------------------------------------------------------------------------------
   4.  RESULTS
 NSTEP =     1000   TIME(PS) =      22.000  TEMP(K) =   287.60  PRESS =  -661.8
 Etot   =     -6483.2787  EKtot   =      1498.5234  EPtot      =     -7981.8021
 BOND   =         0.6036  ANGLE   =         1.4887  DIHED      =         0.7014
 1-4 NB =         3.4456  1-4 EEL =        -5.2355  VDWAALS    =      1209.8672
 EELEC  =     -9192.9540  EHBOND  =         0.0000  RESTRAINT  =         0.2810
 EAMBER (non-restraint)  =     -7982.0831
 EKCMT  =       732.2004  VIRIAL  =      1282.7435  VOLUME     =     38527.6281
                                                    Density    =         0.6781
 DV/DL  =         5.8506
 Ewald error estimate:   0.8904E-04
 ------------------------------------------------------------------------------

      A V E R A G E S   O V E R      10 S T E P S

 NSTEP =    10000   TIME(PS) =      40.000  TEMP(K) =   298.58  PRESS =  -768.8
 Etot   =     -6465.3859  EKtot   =      1555.7027  EPtot      =     -8021.0885
 BOND   =         1.1794  ANGLE   =         2.2801  DIHED      =         1.5162
 1-4 NB =         3.4926  1-4 EEL =        -5.2331  VDWAALS    =      1187.2050
 EELEC  =     -9212.9186  EHBOND  =         0.0000  RESTRAINT  =         1.3899
 EAMBER (non-restraint)  =     -8022.4784
 EKCMT  =       765.9514  VIRIAL  =      1330.6922  VOLUME     =     34061.0645
                                                    Density    =         0.7730
 DV/DL  =         3.3840
 Ewald error estimate:   0.1681E-03
 ------------------------------------------------------------------------------

      R M S  F L U C T U A T I O N S

 NSTEP =    10000   TIME(PS) =      40.000  TEMP(K) =     6.28  PRESS =   299.0
 Etot   =        41.6510  EKtot   =        32.7467  EPtot      =        42.0405
 BOND   =         0.5991  ANGLE   =         0.5112  DIHED      =         0.5326
 1-4 NB =         0.2153  1-4 EEL =         0.1039  VDWAALS    =        39.5457
 EELEC  =        58.2062  EHBOND  =         0.0000  RESTRAINT  =         0.6674
 EAMBER (non-restraint)  =        41.3731
 EKCMT  =        20.0213  VIRIAL  =       222.5267  VOLUME     =      2964.0402
                                                    Density    =         0.0680
 DV/DL  =         1.9348
 Ewald error estimate:   0.1309E-03
 ------------------------------------------------------------------------------

      A V E R A G E S   O V E R      10 S T E P S

 NSTEP =    10000   TIME(PS) =      40.000  TEMP(K) =   298.50  PRESS =  -768.8
 Etot   =     -6464.8652  EKtot   =      1556.2233  EPtot      =     -8021.0885
 BOND   =         1.1794  ANGLE   =         2.2801  DIHED      =         1.5162
 1-4 NB =         3.4926  1-4 EEL =        -5.2331  VDWAALS    =      1187.2050
 EELEC  =     -9212.9186  EHBOND  =         0.0000  RESTRAINT  =         1.3899
 EAMBER (non-restraint)  =     -8022.4784
 EKCMT  =       765.9514  VIRIAL  =      1330.6922  VOLUME     =     34061.0645
                                                    Density    =         0.7738
 DV/DL  =         3.3840
 Ewald error estimate:   0.1681E-03
 ------------------------------------------------------------------------------

      R M S  F L U C T U A T I O N S

 NSTEP =    10000   TIME(PS) =      40.000  TEMP(K) =     6.27  PRESS =   299.0
 Etot   =        41.6976  EKtot   =        32.6732  EPtot      =        42.0405
 BOND   =         0.5991  ANGLE   =         0.5112  DIHED      =         0.5326
 1-4 NB =         0.2153  1-4 EEL =         0.1039  VDWAALS    =        39.5457
 EELEC  =        58.2062  EHBOND  =         0.0000  RESTRAINT  =         0.6674
 EAMBER (non-restraint)  =        41.3731
 EKCMT  =        20.0213  VIRIAL  =       222.5267  VOLUME     =      2964.0402
                                                    Density    =         0.0681
 DV/DL  =         1.9348
 Ewald error estimate:   0.1309E-03
 ------------------------------------------------------------------------------

      DV/DL, AVERAGES OVER      10 STEPS

 NSTEP =    10000   TIME(PS) =      40.000  TEMP(K) =     6.27  PRESS =     0.0
 Etot   =         0.0000  EKtot   =         0.0000  EPtot      =         3.3840
 BOND   =        -0.0000  ANGLE   =        -0.0000  DIHED      =         0.0000
 1-4 NB =         0.0000  1-4 EEL =        -8.0130  VDWAALS    =        -0.5454
 EELEC  =        11.9425  EHBOND  =         0.0000  RESTRAINT  =        -0.0000
 EAMBER (non-restraint)  =         3.3840
 EKCMT  =         0.0000  VIRIAL  =         0.0000  VOLUME     =         0.0000
                                                    Density    =         0.0000
 DV/DL  =         3.3840
 Ewald error estimate:   0.0000E+00
 ------------------------------------------------------------------------------
