-------------------------------------------------------
          Amber 18 PMEMD                              2018
          -------------------------------------------------------

  [-O]verwriting output

File Assignments:

 Here is the input file:

TI simulation
 &cntrl
   imin = 0, nstlim = 100000, irest = 1, ntx = 5, dt = 0.002,
   ntt = 3, temp0 = 300.0, gamma_ln = 2.0, ig = -1,
   ntc = 2, ntf = 1,
   ntb = 2,
   ntp = 1, pres0 = 1.0, taup = 2.0,
   ioutfm = 1, iwrap = 1,
   ntwe = 1000, ntwx = 10000, ntpr = 10000, ntwr = 20000,

   icfe = 1, clambda = 0.9, scalpha = 0.5, scbeta = 12.0,
   logdvdl = 1,
   ifmbar = 1, bar_intervall = 1000, mbar_states = 11,
   mbar_lambda = 0.0, 0.1, 0.2, 0.3, 0.4, 0.5, 0.6, 0.7, 0.8, 0.9, 1.0,
   timask1 = ':1', timask2 = ':2',
   ifsc = 0, crgmask = ':2@H6',
 /

 &ewald
 /

Note: ig = -1. Setting random seed to   324819 based on wallclock time in
      microseconds.

--------------------------------------------------------------------------------
   1.  RESOURCE   USE:
--------------------------------------------------------------------------------

 getting box info from netcdf restart file
 NATOM  =    2631 NTYPES =       4 NBONH =    2619 MBONA  =      12
 NTHETH =      24 MTHETA =      12 NPHIH =      48 MPHIA  =      12
 NHPARM =       0 NPARM  =       0 NNB   =    3580 NRES   =     871
 NBONA  =      12 NTHETA =      12 NPHIA =      12 NUMBND =       4
 NUMANG =       2 NPTRA  =       2 NATYP =       4 NPHB   =       1
 IFBOX  =       1 NMXRS  =      12 IFCAP =       0 NEXTRA =       0
 NCOPY  =       0

     BOX TYPE: RECTILINEAR

--------------------------------------------------------------------------------
   2.  CONTROL  DATA  FOR  THE  RUN
--------------------------------------------------------------------------------

default_name

General flags:
     imin    =       0, nmropt  =       0

Nature and format of input:
     ntx     =       5, irest   =       1, ntrx    =       1

Nature and format of output:
     ntxo    =       2, ntpr    =   10000, ntrx    =       1, ntwr    =   20000
     iwrap   =       1, ntwx    =   10000, ntwv    =       0, ntwe    =    1000
     ioutfm  =       1, ntwprt  =       0, idecomp =       0, rbornstat=      0

Potential function:
     ntf     =       1, ntb     =       2, igb     =       0, nsnb    =      25
     ipol    =       0, gbsa    =       0, iesp    =       0
     dielc   =   1.00000, cut     =   8.00000, intdiel =   1.00000

Frozen or restrained atoms:
     ibelly  =       0, ntr     =       0

Molecular dynamics:
     nstlim  =    100000, nscm    =      1000, nrespa  =         1
     t       =   0.00000, dt      =   0.00200, vlimit  =  20.00000

Langevin dynamics temperature regulation:
     ig      =  324819
     temp0   = 300.00000, tempi   =   0.00000, gamma_ln=   2.00000

Pressure regulation:
     ntp     =       1
     pres0   =   1.00000, comp    =  44.60000, taup    =   2.00000

SHAKE:
     ntc     =       2, jfastw  =       0
     tol     =   0.00001

Free energy options:
     icfe    =       1, ifsc    =       0, klambda =       1
     clambda =  0.9000, scalpha =  0.5000, scbeta  = 12.0000
     sceeorder =       2
     dynlmb =  0.0000 logdvdl =       1

FEP MBAR options:
     ifmbar  =       1,  bar_intervall =     1000
     mbar_states =      11

Ewald parameters:
     verbose =       0, ew_type =       0, nbflag  =       1, use_pme =       1
     vdwmeth =       1, eedmeth =       1, netfrc  =       1
     Box X =   33.673   Box Y =   34.999   Box Z =   35.659
     Alpha =   90.000   Beta  =   90.000   Gamma =   90.000
     NFFT1 =   36       NFFT2 =   36       NFFT3 =   36
     Cutoff=    8.000   Tol   =0.100E-04
     Ewald Coefficient =  0.34864
     Interpolation order =    4
     TI Mask 1 :1; matches     12 atoms
     TI Mask 2 :2; matches     12 atoms
     TI region 1:    2619 atoms
     TI region 2:    2619 atoms
Removing charge of       0.1305 from atom      24
Total charge of   0.13052100 removed from       1 atoms

    MBAR - lambda values considered:
      11 total:  0.0000 0.1000 0.2000 0.3000 0.4000 0.5000 0.6000 0.7000 0.8000 0.9000 1.0000
    Extra energies will be computed    100 times.
     Checking for mismatched coordinates.

--------------------------------------------------------------------------------
   3.  ATOMIC COORDINATES AND VELOCITIES
--------------------------------------------------------------------------------

default_name
 begin time read from input coords =    20.000 ps

 Number of triangulated 3-point waters found:      869

     Sum of charges for TI region  1 =   0.00000000
     Forcing neutrality...

     Sum of charges for TI region  2 =  -0.13052100
     Assuming uniform neutralizing plasma

--------------------------------------------------------------------------------
   4.  RESULTS
 NSTEP =    10000   TIME(PS) =      40.000  TEMP(K) =   304.51  PRESS =  -728.9
 Etot   =     -6478.0814  EKtot   =      1586.6122  EPtot      =     -8064.6936
 BOND   =         3.5037  ANGLE   =         0.8820  DIHED      =         2.4459
 1-4 NB =         2.7624  1-4 EEL =        -1.0134  VDWAALS    =      1200.9986
 EELEC  =     -9274.2729  EHBOND  =         0.0000  RESTRAINT  =         0.0000
 EKCMT  =       790.6775  VIRIAL  =      1307.6310  VOLUME     =     32846.5347
                                                    Density    =         0.7954
 DV/DL  =        -5.0575
 Ewald error estimate:   0.1566E-03
 ------------------------------------------------------------------------------

      A V E R A G E S   O V E R      10 S T E P S

 NSTEP =   100000   TIME(PS) =     220.000  TEMP(K) =   299.27  PRESS =    -2.4
 Etot   =     -6725.5857  EKtot   =      1559.3403  EPtot      =     -8284.9260
 BOND   =         1.7674  ANGLE   =         2.3766  DIHED      =         3.2327
 1-4 NB =         3.3814  1-4 EEL =        -1.0513  VDWAALS    =      1246.4435
 EELEC  =     -9541.0763  EHBOND  =         0.0000  RESTRAINT  =         0.0000
 EKCMT  =       784.4003  VIRIAL  =       795.2969  VOLUME     =     27197.4415
                                                    Density    =         0.9646
 DV/DL  =        -7.1582
 Ewald error estimate:   0.1590E-03
 ------------------------------------------------------------------------------

      R M S  F L U C T U A T I O N S

 NSTEP =   100000   TIME(PS) =     220.000  TEMP(K) =     8.68  PRESS =   381.3
 Etot   =        95.3956  EKtot   =        45.2396  EPtot      =        76.0759
 BOND   =         0.9602  ANGLE   =         1.0121  DIHED      =         1.4813
 1-4 NB =         0.3543  1-4 EEL =         0.0390  VDWAALS    =        41.3601
 EELEC  =        98.8155  EHBOND  =         0.0000  RESTRAINT  =         0.0000
 EKCMT  =        27.8910  VIRIAL  =       239.3106  VOLUME     =      1884.6920
                                                    Density    =         0.0565
 DV/DL  =         1.6781
 Ewald error estimate:   0.9032E-04
 ------------------------------------------------------------------------------

      A V E R A G E S   O V E R      10 S T E P S

 NSTEP =   100000   TIME(PS) =     220.000  TEMP(K) =   299.27  PRESS =    -2.4
 Etot   =     -6725.5857  EKtot   =      1559.3403  EPtot      =     -8284.9260
 BOND   =         1.7674  ANGLE   =         2.3766  DIHED      =         3.2327
 1-4 NB =         3.3814  1-4 EEL =        -1.0513  VDWAALS    =      1246.4435
 EELEC  =     -9541.0763  EHBOND  =         0.0000  RESTRAINT  =         0.0000
 EKCMT  =       784.4003  VIRIAL  =       795.2969  VOLUME     =     27197.4415
                                                    Density    =         0.9646
 DV/DL  =        -7.1582
 Ewald error estimate:   0.1590E-03
 ------------------------------------------------------------------------------

      R M S  F L U C T U A T I O N S

 NSTEP =   100000   TIME(PS) =     220.000  TEMP(K) =     8.68  PRESS =   381.3
 Etot   =        95.3956  EKtot   =        45.2396  EPtot      =        76.0759
 BOND   =         0.9602  ANGLE   =         1.0121  DIHED      =         1.4813
 1-4 NB =         0.3543  1-4 EEL =         0.0390  VDWAALS    =        41.3601
 EELEC  =        98.8155  EHBOND  =         0.0000  RESTRAINT  =         0.0000
 EKCMT  =        27.8910  VIRIAL  =       239.3106  VOLUME     =      1884.6920
                                                    Density    =         0.0565
 DV/DL  =         1.6781
 Ewald error estimate:   0.9032E-04
 ------------------------------------------------------------------------------

      DV/DL, AVERAGES OVER      10 STEPS

 NSTEP =   100000   TIME(PS) =     220.000  TEMP(K) =     8.68  PRESS =     0.0
 Etot   =         0.0000  EKtot   =         0.0000  EPtot      =        -7.1582
 BOND   =        -0.0000  ANGLE   =         0.0000  DIHED      =        -0.0000
 1-4 NB =         0.0000  1-4 EEL =        -0.9812  VDWAALS    =         0.0000
 EELEC  =        -6.1770  EHBOND  =         0.0000  RESTRAINT  =         0.0000
 EKCMT  =         0.0000  VIRIAL  =         0.0000  VOLUME     =         0.0000
                                                    Density    =         0.0000
 DV/DL  =        -7.1582
 Ewald error estimate:   0.0000E+00
 ------------------------------------------------------------------------------
