-------------------------------------------------------
          Amber 16 PMEMD                              2016
          -------------------------------------------------------

  [-O]verwriting output

File Assignments:

 Here is the input file:

TI simulation
 &cntrl
   imin = 0, nstlim = 100000, irest = 1, ntx = 5, dt = 0.002,
   ntt = 3, temp0 = 300.0, gamma_ln = 2.0, ig = -1,
   vlimit = 20,
   ntc = 2, ntf = 1,
   ntb = 2,
   ntp = 1, pres0 = 1.0, taup = 2.0,
   ioutfm = 1, iwrap = 1,
   ntwe = 1000, ntwx = 10000, ntpr = 10000, ntwr = 20000,

   icfe = 1, clambda = 0.100, scalpha = 0.5, scbeta = 12.0,
   logdvdl = 1,
   ifmbar = 1, bar_intervall = 1000, mbar_states = 11,
   mbar_lambda = 0.0,0.1,0.2,0.3,0.4,0.5,0.6,0.7,0.8,0.9,1.0,
   timask1 = ':1', timask2 = ':2',
   ifsc = 0, crgmask = ':2@H7,O1'
 /

 &ewald
 /

Note: ig = -1. Setting random seed to   526542 based on wallclock time in
      microseconds.

--------------------------------------------------------------------------------
   1.  RESOURCE   USE:
--------------------------------------------------------------------------------

 getting box info from netcdf restart file
 NATOM  =   24924 NTYPES =      16 NBONH =   23618 MBONA  =    1322
 NTHETH =   25286 MTHETA =    1777 NPHIH =    6059 MPHIA  =    5533
 NHPARM =       0 NPARM  =       0 NNB   =   44138 NRES   =    7599
 NBONA  =    1322 NTHETA =    1777 NPHIA =    5533 NUMBND =      67
 NUMANG =     153 NPTRA  =     185 NATYP =      36 NPHB   =       0
 IFBOX  =       1 NMXRS  =      24 IFCAP =       0 NEXTRA =       0
 NCOPY  =       0

     BOX TYPE: RECTILINEAR

--------------------------------------------------------------------------------
   2.  CONTROL  DATA  FOR  THE  RUN
--------------------------------------------------------------------------------

NIL

General flags:
     imin    =       0, nmropt  =       0

Nature and format of input:
     ntx     =       5, irest   =       1, ntrx    =       1

Nature and format of output:
     ntxo    =       2, ntpr    =   10000, ntrx    =       1, ntwr    =   20000
     iwrap   =       1, ntwx    =   10000, ntwv    =       0, ntwe    =    1000
     ioutfm  =       1, ntwprt  =       0, idecomp =       0, rbornstat=      0

Potential function:
     ntf     =       1, ntb     =       2, igb     =       0, nsnb    =      25
     ipol    =       0, gbsa    =       0, iesp    =       0
     dielc   =   1.00000, cut     =   8.00000, intdiel =   1.00000

Frozen or restrained atoms:
     ibelly  =       0, ntr     =       0

Molecular dynamics:
     nstlim  =    100000, nscm    =      1000, nrespa  =         1
     t       =   0.00000, dt      =   0.00200, vlimit  =  20.00000

Langevin dynamics temperature regulation:
     ig      =  526542
     temp0   = 300.00000, tempi   =   0.00000, gamma_ln=   2.00000

Pressure regulation:
     ntp     =       1
     pres0   =   1.00000, comp    =  44.60000, taup    =   2.00000

SHAKE:
     ntc     =       2, jfastw  =       0
     tol     =   0.00001

Free energy options:
     icfe    =       1, ifsc    =       0, klambda =       1
     clambda =  0.1000, scalpha =  0.5000, scbeta  = 12.0000
     sceeorder =       2
     dynlmb =  0.0000 logdvdl =       1

FEP MBAR options:
     ifmbar  =       1,  bar_intervall =     1000
     mbar_states =      11

Ewald parameters:
     verbose =       0, ew_type =       0, nbflag  =       1, use_pme =       1
     vdwmeth =       1, eedmeth =       1, netfrc  =       1
     Box X =   61.526   Box Y =   65.482   Box Z =   73.445
     Alpha =   90.000   Beta  =   90.000   Gamma =   90.000
     NFFT1 =   64       NFFT2 =   64       NFFT3 =   80
     Cutoff=    8.000   Tol   =0.100E-04
     Ewald Coefficient =  0.34864
     Interpolation order =    4
     TI Mask 1 :1; matches     12 atoms
     TI Mask 2 :2; matches     12 atoms
     TI region 1:   24912 atoms
     TI region 2:   24912 atoms
Removing charge of       0.1300 from atom      24
Total charge of   0.13000000 removed from       1 atoms

    MBAR - lambda values considered:
      11 total:  0.0000 0.1000 0.2000 0.3000 0.4000 0.5000 0.6000 0.7000 0.8000 0.9000 1.0000
    Extra energies will be computed    100 times.
     Checking for mismatched coordinates.

--------------------------------------------------------------------------------
   3.  ATOMIC COORDINATES AND VELOCITIES
--------------------------------------------------------------------------------

NIL
 begin time read from input coords =    20.000 ps

 Number of triangulated 3-point waters found:     7431

     Sum of charges for TI region  1 =   0.00041629
     Forcing neutrality...

     Sum of charges for TI region  2 =  -0.12958371
     Assuming uniform neutralizing plasma

--------------------------------------------------------------------------------
   4.  RESULTS
 NSTEP =    10000   TIME(PS) =      40.000  TEMP(K) =   299.55  PRESS =  -426.9
 Etot   =    -59512.6516  EKtot   =     15216.3370  EPtot      =    -74728.9886
 BOND   =       490.1158  ANGLE   =      1268.2105  DIHED      =      2032.9066
 1-4 NB =       651.1992  1-4 EEL =      6029.9991  VDWAALS    =      8827.6234
 EELEC  =    -94029.0432  EHBOND  =         0.0000  RESTRAINT  =         0.0000
 EKCMT  =         2.4772  VIRIAL  =      2299.5579  VOLUME     =    249237.1896
                                                    Density    =         1.0156
 DV/DL  =        -6.4891
 ------------------------------------------------------------------------------

      A V E R A G E S   O V E R      10 S T E P S

 NSTEP =   100000   TIME(PS) =     220.000  TEMP(K) =   299.49  PRESS =   -35.4
 Etot   =    -59463.8955  EKtot   =     15212.9357  EPtot      =    -74676.8312
 BOND   =       507.4546  ANGLE   =      1249.8622  DIHED      =      2044.5915
 1-4 NB =       665.1205  1-4 EEL =      6040.8859  VDWAALS    =      8861.5115
 EELEC  =    -94046.2573  EHBOND  =         0.0000  RESTRAINT  =         0.0000
 EKCMT  =         1.8011  VIRIAL  =       192.4702  VOLUME     =    248223.6760
                                                    Density    =         1.0198
 DV/DL  =        -5.9686
 ------------------------------------------------------------------------------

      R M S  F L U C T U A T I O N S

 NSTEP =   100000   TIME(PS) =     220.000  TEMP(K) =     1.76  PRESS =   358.5
 Etot   =       108.0907  EKtot   =        89.2749  EPtot      =       129.5853
 BOND   =        15.2260  ANGLE   =        21.8152  DIHED      =        10.2068
 1-4 NB =        11.6915  1-4 EEL =        26.3108  VDWAALS    =       147.8645
 EELEC  =       241.6325  EHBOND  =         0.0000  RESTRAINT  =         0.0000
 EKCMT  =         0.8280  VIRIAL  =      1922.0737  VOLUME     =       549.5523
                                                    Density    =         0.0023
 DV/DL  =         0.8151
 ------------------------------------------------------------------------------

      A V E R A G E S   O V E R      10 S T E P S

 NSTEP =   100000   TIME(PS) =     220.000  TEMP(K) =   299.49  PRESS =   -35.4
 Etot   =    -59463.8955  EKtot   =     15212.9357  EPtot      =    -74676.8312
 BOND   =       507.4546  ANGLE   =      1249.8622  DIHED      =      2044.5915
 1-4 NB =       665.1205  1-4 EEL =      6040.8859  VDWAALS    =      8861.5115
 EELEC  =    -94046.2573  EHBOND  =         0.0000  RESTRAINT  =         0.0000
 EKCMT  =         1.8011  VIRIAL  =       192.4702  VOLUME     =    248223.6760
                                                    Density    =         1.0198
 DV/DL  =        -5.9686
 ------------------------------------------------------------------------------

      R M S  F L U C T U A T I O N S

 NSTEP =   100000   TIME(PS) =     220.000  TEMP(K) =     1.76  PRESS =   358.5
 Etot   =       108.0907  EKtot   =        89.2749  EPtot      =       129.5853
 BOND   =        15.2260  ANGLE   =        21.8152  DIHED      =        10.2068
 1-4 NB =        11.6915  1-4 EEL =        26.3108  VDWAALS    =       147.8645
 EELEC  =       241.6325  EHBOND  =         0.0000  RESTRAINT  =         0.0000
 EKCMT  =         0.8280  VIRIAL  =      1922.0737  VOLUME     =       549.5523
                                                    Density    =         0.0023
 DV/DL  =         0.8151
 ------------------------------------------------------------------------------

      DV/DL, AVERAGES OVER      10 STEPS

 NSTEP =   100000   TIME(PS) =     220.000  TEMP(K) =     1.76  PRESS =     0.0
 Etot   =         0.0000  EKtot   =         0.0000  EPtot      =        -5.9686
 BOND   =         0.0000  ANGLE   =         0.0000  DIHED      =         0.0000
 1-4 NB =         0.0000  1-4 EEL =        -1.0400  VDWAALS    =         0.0000
 EELEC  =        -4.9286  EHBOND  =         0.0000  RESTRAINT  =         0.0000
 EKCMT  =         0.0000  VIRIAL  =         0.0000  VOLUME     =         0.0000
                                                    Density    =         0.0000
 DV/DL  =        -5.9686
 ------------------------------------------------------------------------------
