-------------------------------------------------------
          Amber 18 PMEMD                              2018
          -------------------------------------------------------

  [-O]verwriting output

File Assignments:

 Here is the input file:

TI simulation
 &cntrl
   imin = 0, nstlim = 100000, irest = 1, ntx = 5, dt = 0.002,
   ntt = 3, temp0 = 300.0, gamma_ln = 2.0, ig = -1,
   ntc = 2, ntf = 1,
   ntb = 2,
   ntp = 1, pres0 = 1.0, taup = 2.0,
   ioutfm = 1, iwrap = 1,
   ntwe = 1000, ntwx = 10000, ntpr = 10000, ntwr = 20000,

   icfe = 1, clambda = 0.1, scalpha = 0.5, scbeta = 12.0,
   logdvdl = 1,
   ifmbar = 1, bar_intervall = 1000, mbar_states = 11,
   mbar_lambda = 0.0, 0.1, 0.2, 0.3, 0.4, 0.5, 0.6, 0.7, 0.8, 0.9, 1.0,
   timask1 = ':1', timask2 = ':2',
   ifsc = 0, crgmask = ':1@O1,H6',
 /

 &ewald
 /

Note: ig = -1. Setting random seed to   303800 based on wallclock time in
      microseconds.

--------------------------------------------------------------------------------
   1.  RESOURCE   USE:
--------------------------------------------------------------------------------

 getting box info from netcdf restart file
 NATOM  =    2633 NTYPES =       6 NBONH =    2619 MBONA  =      14
 NTHETH =      22 MTHETA =      16 NPHIH =      46 MPHIA  =      16
 NHPARM =       0 NPARM  =       0 NNB   =    3588 NRES   =     871
 NBONA  =      14 NTHETA =      16 NPHIA =      16 NUMBND =       6
 NUMANG =       4 NPTRA  =       3 NATYP =       6 NPHB   =       1
 IFBOX  =       1 NMXRS  =      13 IFCAP =       0 NEXTRA =       0
 NCOPY  =       0

     BOX TYPE: RECTILINEAR

--------------------------------------------------------------------------------
   2.  CONTROL  DATA  FOR  THE  RUN
--------------------------------------------------------------------------------

default_name

General flags:
     imin    =       0, nmropt  =       0

Nature and format of input:
     ntx     =       5, irest   =       1, ntrx    =       1

Nature and format of output:
     ntxo    =       2, ntpr    =   10000, ntrx    =       1, ntwr    =   20000
     iwrap   =       1, ntwx    =   10000, ntwv    =       0, ntwe    =    1000
     ioutfm  =       1, ntwprt  =       0, idecomp =       0, rbornstat=      0

Potential function:
     ntf     =       1, ntb     =       2, igb     =       0, nsnb    =      25
     ipol    =       0, gbsa    =       0, iesp    =       0
     dielc   =   1.00000, cut     =   8.00000, intdiel =   1.00000

Frozen or restrained atoms:
     ibelly  =       0, ntr     =       0

Molecular dynamics:
     nstlim  =    100000, nscm    =      1000, nrespa  =         1
     t       =   0.00000, dt      =   0.00200, vlimit  =  20.00000

Langevin dynamics temperature regulation:
     ig      =  303800
     temp0   = 300.00000, tempi   =   0.00000, gamma_ln=   2.00000

Pressure regulation:
     ntp     =       1
     pres0   =   1.00000, comp    =  44.60000, taup    =   2.00000

SHAKE:
     ntc     =       2, jfastw  =       0
     tol     =   0.00001

Free energy options:
     icfe    =       1, ifsc    =       0, klambda =       1
     clambda =  0.1000, scalpha =  0.5000, scbeta  = 12.0000
     sceeorder =       2
     dynlmb =  0.0000 logdvdl =       1

FEP MBAR options:
     ifmbar  =       1,  bar_intervall =     1000
     mbar_states =      11

Ewald parameters:
     verbose =       0, ew_type =       0, nbflag  =       1, use_pme =       1
     vdwmeth =       1, eedmeth =       1, netfrc  =       1
     Box X =   33.673   Box Y =   34.999   Box Z =   35.659
     Alpha =   90.000   Beta  =   90.000   Gamma =   90.000
     NFFT1 =   36       NFFT2 =   36       NFFT3 =   36
     Cutoff=    8.000   Tol   =0.100E-04
     Ewald Coefficient =  0.34864
     Interpolation order =    4
     TI Mask 1 :1; matches     13 atoms
     TI Mask 2 :2; matches     13 atoms
     TI region 1:    2620 atoms
     TI region 2:    2620 atoms
Removing charge of      -0.5539 from atom      12
Removing charge of       0.3791 from atom      13
Total charge of  -0.17486000 removed from       2 atoms

    MBAR - lambda values considered:
      11 total:  0.0000 0.1000 0.2000 0.3000 0.4000 0.5000 0.6000 0.7000 0.8000 0.9000 1.0000
    Extra energies will be computed    100 times.
     Checking for mismatched coordinates.

--------------------------------------------------------------------------------
   3.  ATOMIC COORDINATES AND VELOCITIES
--------------------------------------------------------------------------------

default_name
 begin time read from input coords =    20.000 ps

 Number of triangulated 3-point waters found:      869

     Sum of charges for TI region  1 =   0.17486100
     Assuming uniform neutralizing plasma

     Sum of charges for TI region  2 =   0.00000100
     Forcing neutrality...

--------------------------------------------------------------------------------
   4.  RESULTS
 NSTEP =    10000   TIME(PS) =      40.000  TEMP(K) =   295.36  PRESS =  -524.7
 Etot   =     -6453.1444  EKtot   =      1539.8035  EPtot      =     -7992.9478
 BOND   =         6.0324  ANGLE   =         2.0213  DIHED      =         1.6951
 1-4 NB =         3.5011  1-4 EEL =       -13.3893  VDWAALS    =      1192.6737
 EELEC  =     -9185.4819  EHBOND  =         0.0000  RESTRAINT  =         0.0000
 EKCMT  =       777.5743  VIRIAL  =      1151.1567  VOLUME     =     32976.4134
                                                    Density    =         0.7931
 DV/DL  =       -31.0488
 Ewald error estimate:   0.1445E-03
 ------------------------------------------------------------------------------

      A V E R A G E S   O V E R      10 S T E P S

 NSTEP =   100000   TIME(PS) =     220.000  TEMP(K) =   298.44  PRESS =   -55.3
 Etot   =     -6717.4904  EKtot   =      1555.8685  EPtot      =     -8273.3589
 BOND   =         2.8558  ANGLE   =         2.6625  DIHED      =         3.1494
 1-4 NB =         3.7387  1-4 EEL =       -13.2727  VDWAALS    =      1233.9179
 EELEC  =     -9506.4106  EHBOND  =         0.0000  RESTRAINT  =         0.0000
 EKCMT  =       784.3865  VIRIAL  =       823.0856  VOLUME     =     27286.6267
                                                    Density    =         0.9624
 DV/DL  =       -30.4010
 Ewald error estimate:   0.1241E-03
 ------------------------------------------------------------------------------

      R M S  F L U C T U A T I O N S

 NSTEP =   100000   TIME(PS) =     220.000  TEMP(K) =     5.67  PRESS =   342.6
 Etot   =       101.6466  EKtot   =        29.5430  EPtot      =        97.3112
 BOND   =         1.5946  ANGLE   =         0.7524  DIHED      =         1.7940
 1-4 NB =         0.3981  1-4 EEL =         0.2668  VDWAALS    =        40.4047
 EELEC  =       116.4482  EHBOND  =         0.0000  RESTRAINT  =         0.0000
 EKCMT  =        22.0486  VIRIAL  =       211.7421  VOLUME     =      1898.6274
                                                    Density    =         0.0565
 DV/DL  =         1.6911
 Ewald error estimate:   0.4370E-04
 ------------------------------------------------------------------------------

      A V E R A G E S   O V E R      10 S T E P S

 NSTEP =   100000   TIME(PS) =     220.000  TEMP(K) =   298.44  PRESS =   -55.3
 Etot   =     -6717.4904  EKtot   =      1555.8685  EPtot      =     -8273.3589
 BOND   =         2.8558  ANGLE   =         2.6625  DIHED      =         3.1494
 1-4 NB =         3.7387  1-4 EEL =       -13.2727  VDWAALS    =      1233.9179
 EELEC  =     -9506.4106  EHBOND  =         0.0000  RESTRAINT  =         0.0000
 EKCMT  =       784.3865  VIRIAL  =       823.0856  VOLUME     =     27286.6267
                                                    Density    =         0.9624
 DV/DL  =       -30.4010
 Ewald error estimate:   0.1241E-03
 ------------------------------------------------------------------------------

      R M S  F L U C T U A T I O N S

 NSTEP =   100000   TIME(PS) =     220.000  TEMP(K) =     5.67  PRESS =   342.6
 Etot   =       101.6466  EKtot   =        29.5430  EPtot      =        97.3112
 BOND   =         1.5946  ANGLE   =         0.7524  DIHED      =         1.7940
 1-4 NB =         0.3981  1-4 EEL =         0.2668  VDWAALS    =        40.4047
 EELEC  =       116.4482  EHBOND  =         0.0000  RESTRAINT  =         0.0000
 EKCMT  =        22.0486  VIRIAL  =       211.7421  VOLUME     =      1898.6274
                                                    Density    =         0.0565
 DV/DL  =         1.6911
 Ewald error estimate:   0.4370E-04
 ------------------------------------------------------------------------------

      DV/DL, AVERAGES OVER      10 STEPS

 NSTEP =   100000   TIME(PS) =     220.000  TEMP(K) =     5.67  PRESS =     0.0
 Etot   =         0.0000  EKtot   =         0.0000  EPtot      =       -30.4010
 BOND   =        -0.0000  ANGLE   =        -0.0000  DIHED      =         0.0000
 1-4 NB =        -0.0000  1-4 EEL =       -38.7493  VDWAALS    =         0.0000
 EELEC  =         8.3483  EHBOND  =         0.0000  RESTRAINT  =         0.0000
 EKCMT  =         0.0000  VIRIAL  =         0.0000  VOLUME     =         0.0000
                                                    Density    =         0.0000
 DV/DL  =       -30.4010
 Ewald error estimate:   0.0000E+00
 ------------------------------------------------------------------------------
