-------------------------------------------------------
          Amber 16 PMEMD                              2016
          -------------------------------------------------------

  [-O]verwriting output

File Assignments:

 Here is the input file:

TI simulation
 &cntrl
   imin = 0, nstlim = 100000, irest = 1, ntx = 5, dt = 0.002,
   ntt = 3, temp0 = 300.0, gamma_ln = 2.0, ig = -1,
   vlimit = 20,
   ntc = 2, ntf = 1,
   ntb = 2,
   ntp = 1, pres0 = 1.0, taup = 2.0,
   ioutfm = 1, iwrap = 1,
   ntwe = 1000, ntwx = 10000, ntpr = 10000, ntwr = 20000,

   icfe = 1, clambda = 1.000, scalpha = 0.5, scbeta = 12.0,
   logdvdl = 1,
   ifmbar = 1, bar_intervall = 1000, mbar_states = 11,
   mbar_lambda = 0.0,0.1,0.2,0.3,0.4,0.5,0.6,0.7,0.8,0.9,1.0,
   timask1 = ':1', timask2 = ':2',
   ifsc = 1, scmask1=':1@H7', scmask2=':2@H7,O1', crgmask = ':1@H7|:2@H7,O1'
 /

 &ewald
 /

Note: ig = -1. Setting random seed to   682154 based on wallclock time in
      microseconds.

--------------------------------------------------------------------------------
   1.  RESOURCE   USE:
--------------------------------------------------------------------------------

 getting box info from netcdf restart file
 NATOM  =    1831 NTYPES =       5 NBONH =    1818 MBONA  =      13
 NTHETH =    1829 MTHETA =      14 NPHIH =      36 MPHIA  =      14
 NHPARM =       0 NPARM  =       0 NNB   =    2518 NRES   =     604
 NBONA  =      13 NTHETA =      14 NPHIA =      14 NUMBND =       6
 NUMANG =       6 NPTRA  =       2 NATYP =       6 NPHB   =       0
 IFBOX  =       1 NMXRS  =      13 IFCAP =       0 NEXTRA =       0
 NCOPY  =       0

     BOX TYPE: RECTILINEAR

--------------------------------------------------------------------------------
   2.  CONTROL  DATA  FOR  THE  RUN
--------------------------------------------------------------------------------

NIL

General flags:
     imin    =       0, nmropt  =       0

Nature and format of input:
     ntx     =       5, irest   =       1, ntrx    =       1

Nature and format of output:
     ntxo    =       2, ntpr    =   10000, ntrx    =       1, ntwr    =   20000
     iwrap   =       1, ntwx    =   10000, ntwv    =       0, ntwe    =    1000
     ioutfm  =       1, ntwprt  =       0, idecomp =       0, rbornstat=      0

Potential function:
     ntf     =       1, ntb     =       2, igb     =       0, nsnb    =      25
     ipol    =       0, gbsa    =       0, iesp    =       0
     dielc   =   1.00000, cut     =   8.00000, intdiel =   1.00000

Frozen or restrained atoms:
     ibelly  =       0, ntr     =       0

Molecular dynamics:
     nstlim  =    100000, nscm    =      1000, nrespa  =         1
     t       =   0.00000, dt      =   0.00200, vlimit  =  20.00000

Langevin dynamics temperature regulation:
     ig      =  682154
     temp0   = 300.00000, tempi   =   0.00000, gamma_ln=   2.00000

Pressure regulation:
     ntp     =       1
     pres0   =   1.00000, comp    =  44.60000, taup    =   2.00000

SHAKE:
     ntc     =       2, jfastw  =       0
     tol     =   0.00001

Free energy options:
     icfe    =       1, ifsc    =       1, klambda =       1
     clambda =  1.0000, scalpha =  0.5000, scbeta  = 12.0000
     sceeorder =       2
     dynlmb =  0.0000 logdvdl =       1

FEP MBAR options:
     ifmbar  =       1,  bar_intervall =     1000
     mbar_states =      11

Ewald parameters:
     verbose =       0, ew_type =       0, nbflag  =       1, use_pme =       1
     vdwmeth =       1, eedmeth =       1, netfrc  =       1
     Box X =   25.754   Box Y =   26.213   Box Z =   27.372
     Alpha =   90.000   Beta  =   90.000   Gamma =   90.000
     NFFT1 =   28       NFFT2 =   28       NFFT3 =   28
     Cutoff=    8.000   Tol   =0.100E-04
     Ewald Coefficient =  0.34864
     Interpolation order =    4
     TI Mask 1 :1; matches     12 atoms
     TI Mask 2 :2; matches     13 atoms
     TI region 1:    1818 atoms
     TI region 2:    1819 atoms
     SC Mask 1 :1@H7; matches      1 atoms
     SC Mask 2 :2@H7,O1; matches      2 atoms
Removing charge of       0.1300 from atom      12
Removing charge of      -0.6242 from atom      24
Removing charge of       0.4181 from atom      25
Total charge of  -0.07614616 removed from       3 atoms

    MBAR - lambda values considered:
      11 total:  0.0000 0.1000 0.2000 0.3000 0.4000 0.5000 0.6000 0.7000 0.8000 0.9000 1.0000
    Extra energies will be computed    100 times.

--------------------------------------------------------------------------------
   3.  ATOMIC COORDINATES AND VELOCITIES
--------------------------------------------------------------------------------

NIL
 begin time read from input coords =    20.000 ps

     Molecule     1 is partially softcore
     Molecule     2 is partially softcore
 Number of triangulated 3-point waters found:      602
   Removing shake constraints from H7    COR   1 -- C_12  COR   1
 Number of shake restraints removed in TI region  1 :        1
 Number of shake restraints removed in TI region  2 :        0

     Sum of charges for TI region  1 =  -0.13000066
     Assuming uniform neutralizing plasma

     Sum of charges for TI region  2 =   0.20614550
     Assuming uniform neutralizing plasma

--------------------------------------------------------------------------------
   4.  RESULTS
 NSTEP =    10000   TIME(PS) =      40.000  TEMP(K) =   302.80  PRESS =   829.3
 Etot   =     -4583.6049  EKtot   =      1096.0197  EPtot      =     -5679.6247
 BOND   =         3.4782  ANGLE   =         3.1367  DIHED      =         1.7265
 1-4 NB =        17.7504  1-4 EEL =        -3.8790  VDWAALS    =       908.7539
 EELEC  =     -6610.5914  EHBOND  =         0.0000  RESTRAINT  =         0.0000
 EKCMT  =       552.6336  VIRIAL  =       216.3127  VOLUME     =     18782.0811
                                                    Density    =         0.9658
 DV/DL  =        -8.2781
 ------------------------------------------------------------------------------

      A V E R A G E S   O V E R      10 S T E P S

 NSTEP =   100000   TIME(PS) =     220.000  TEMP(K) =   300.16  PRESS =   -50.9
 Etot   =     -4620.7188  EKtot   =      1086.4901  EPtot      =     -5707.2089
 BOND   =         1.6249  ANGLE   =         3.6053  DIHED      =         2.0347
 1-4 NB =        14.7423  1-4 EEL =        -4.0076  VDWAALS    =       840.9257
 EELEC  =     -6566.1342  EHBOND  =         0.0000  RESTRAINT  =         0.0000
 EKCMT  =       542.8248  VIRIAL  =       563.1848  VOLUME     =     18745.5185
                                                    Density    =         0.9677
 DV/DL  =        -7.5573
 ------------------------------------------------------------------------------

      R M S  F L U C T U A T I O N S

 NSTEP =   100000   TIME(PS) =     220.000  TEMP(K) =     4.70  PRESS =   355.8
 Etot   =        40.8904  EKtot   =        17.0207  EPtot      =        30.3378
 BOND   =         0.7838  ANGLE   =         1.2263  DIHED      =         1.1293
 1-4 NB =         1.5331  1-4 EEL =         0.3980  VDWAALS    =        37.3963
 EELEC  =        56.7013  EHBOND  =         0.0000  RESTRAINT  =         0.0000
 EKCMT  =        13.4869  VIRIAL  =       147.1683  VOLUME     =        85.2909
                                                    Density    =         0.0044
 DV/DL  =         1.6280
 ------------------------------------------------------------------------------

      A V E R A G E S   O V E R      10 S T E P S

 NSTEP =   100000   TIME(PS) =     220.000  TEMP(K) =   300.37  PRESS =   -50.9
 Etot   =     -4619.3717  EKtot   =      1087.8372  EPtot      =     -5707.2089
 BOND   =         1.6249  ANGLE   =         3.6053  DIHED      =         2.0347
 1-4 NB =        14.7423  1-4 EEL =        -4.0076  VDWAALS    =       840.9257
 EELEC  =     -6566.1342  EHBOND  =         0.0000  RESTRAINT  =         0.0000
 EKCMT  =       542.8248  VIRIAL  =       563.1848  VOLUME     =     18745.5185
                                                    Density    =         0.9691
 DV/DL  =        -7.5573
 ------------------------------------------------------------------------------

      R M S  F L U C T U A T I O N S

 NSTEP =   100000   TIME(PS) =     220.000  TEMP(K) =     4.67  PRESS =   355.8
 Etot   =        41.0761  EKtot   =        16.9249  EPtot      =        30.3378
 BOND   =         0.7838  ANGLE   =         1.2263  DIHED      =         1.1293
 1-4 NB =         1.5331  1-4 EEL =         0.3980  VDWAALS    =        37.3963
 EELEC  =        56.7013  EHBOND  =         0.0000  RESTRAINT  =         0.0000
 EKCMT  =        13.4869  VIRIAL  =       147.1683  VOLUME     =        85.2909
                                                    Density    =         0.0044
 DV/DL  =         1.6280
 ------------------------------------------------------------------------------

      DV/DL, AVERAGES OVER      10 STEPS

 NSTEP =   100000   TIME(PS) =     220.000  TEMP(K) =     4.67  PRESS =     0.0
 Etot   =         0.0000  EKtot   =         0.0000  EPtot      =        -7.5573
 BOND   =         0.0000  ANGLE   =         0.0000  DIHED      =         0.0000
 1-4 NB =         0.0000  1-4 EEL =        -8.0689  VDWAALS    =        -1.4985
 EELEC  =         1.5640  EHBOND  =         0.0000  RESTRAINT  =         0.0000
 EKCMT  =         0.0000  VIRIAL  =         0.0000  VOLUME     =         0.0000
                                                    Density    =         0.0000
 DV/DL  =        -7.5573
 ------------------------------------------------------------------------------
