-------------------------------------------------------
          Amber 16 PMEMD                              2016
          -------------------------------------------------------

  [-O]verwriting output

File Assignments:

 Here is the input file:

pressurising
 &cntrl
   imin = 0, nstlim = 10000, irest = 1, ntx = 5, dt = 0.002,
   ntt = 3, temp0 = 300.0, gamma_ln = 2.0, ig = -1,
   tautp = 1.0,
   vlimit = 20,
   ntp = 1, pres0 = 1.0, taup = 2.0,
   ntb = 2,
   ntc = 2, ntf = 1,
   ioutfm = 1, iwrap = 1,
   ntwe = 1000, ntwx = 1000, ntpr = 1000, ntwr = 5000,

   ntr = 1, restraint_wt = 5.00,
   restraintmask='!:WAT & !@H=',

   icfe = 1, ifsc = 1, clambda = 0.5, scalpha = 0.5, scbeta = 12.0,
   logdvdl = 0,
   timask1 = ':1', timask2 = ':2',
   scmask1 = ':1@H7', scmask2 = ':2@H7,O1'
 /
 &ewald
 /

Note: ig = -1. Setting random seed to   690213 based on wallclock time in
      microseconds.

--------------------------------------------------------------------------------
   1.  RESOURCE   USE:
--------------------------------------------------------------------------------

 getting box info from netcdf restart file
 NATOM  =   24925 NTYPES =      16 NBONH =   23618 MBONA  =    1323
 NTHETH =   25285 MTHETA =    1779 NPHIH =    6059 MPHIA  =    5535
 NHPARM =       0 NPARM  =       0 NNB   =   44142 NRES   =    7599
 NBONA  =    1323 NTHETA =    1779 NPHIA =    5535 NUMBND =      69
 NUMANG =     155 NPTRA  =     186 NATYP =      38 NPHB   =       0
 IFBOX  =       1 NMXRS  =      24 IFCAP =       0 NEXTRA =       0
 NCOPY  =       0

     BOX TYPE: RECTILINEAR

--------------------------------------------------------------------------------
   2.  CONTROL  DATA  FOR  THE  RUN
--------------------------------------------------------------------------------

NIL

General flags:
     imin    =       0, nmropt  =       0

Nature and format of input:
     ntx     =       5, irest   =       1, ntrx    =       1

Nature and format of output:
     ntxo    =       2, ntpr    =    1000, ntrx    =       1, ntwr    =    5000
     iwrap   =       1, ntwx    =    1000, ntwv    =       0, ntwe    =    1000
     ioutfm  =       1, ntwprt  =       0, idecomp =       0, rbornstat=      0

Potential function:
     ntf     =       1, ntb     =       2, igb     =       0, nsnb    =      25
     ipol    =       0, gbsa    =       0, iesp    =       0
     dielc   =   1.00000, cut     =   8.00000, intdiel =   1.00000

Frozen or restrained atoms:
     ibelly  =       0, ntr     =       1
     restraint_wt =   5.00000

Molecular dynamics:
     nstlim  =     10000, nscm    =         0, nrespa  =         1
     t       =   0.00000, dt      =   0.00200, vlimit  =  20.00000

Langevin dynamics temperature regulation:
     ig      =  690213
     temp0   = 300.00000, tempi   =   0.00000, gamma_ln=   2.00000

Pressure regulation:
     ntp     =       1
     pres0   =   1.00000, comp    =  44.60000, taup    =   2.00000

SHAKE:
     ntc     =       2, jfastw  =       0
     tol     =   0.00001

Free energy options:
     icfe    =       1, ifsc    =       1, klambda =       1
     clambda =  0.5000, scalpha =  0.5000, scbeta  = 12.0000
     sceeorder =       2
     dynlmb =  0.0000 logdvdl =       0

Ewald parameters:
     verbose =       0, ew_type =       0, nbflag  =       1, use_pme =       1
     vdwmeth =       1, eedmeth =       1, netfrc  =       1
     Box X =   60.763   Box Y =   64.852   Box Z =   73.381
     Alpha =   90.000   Beta  =   90.000   Gamma =   90.000
     NFFT1 =   64       NFFT2 =   72       NFFT3 =   75
     Cutoff=    8.000   Tol   =0.100E-04
     Ewald Coefficient =  0.34864
     Interpolation order =    4

    LOADING THE CONSTRAINED ATOMS AS GROUPS

   5.  REFERENCE ATOM COORDINATES

  NIL
     Mask !:WAT & !@H=; matches  1307 atoms
     TI Mask 1 :1; matches     12 atoms
     TI Mask 2 :2; matches     13 atoms
     TI region 1:   24912 atoms
     TI region 2:   24913 atoms
     SC Mask 1 :1@H7; matches      1 atoms
     SC Mask 2 :2@H7,O1; matches      2 atoms

--------------------------------------------------------------------------------
   3.  ATOMIC COORDINATES AND VELOCITIES
--------------------------------------------------------------------------------

NIL
 begin time read from input coords =    20.000 ps

     Molecule     1 is partially softcore
     Molecule     2 is partially softcore
 Number of triangulated 3-point waters found:     7431
 WARNING: SHAKEn bond for atoms       12        3 is partially softcore.
 Coordinates for common atoms will be synchronized from V0.
 Consider using noshake mask or disabling SHAKE.

 Number of shake restraints removed in TI region  1 :        0
 Number of shake restraints removed in TI region  2 :        0

     Sum of charges for TI region  1 =   0.00039182
     Forcing neutrality...

     Sum of charges for TI region  2 =   0.00039182
     Forcing neutrality...

--------------------------------------------------------------------------------
   4.  RESULTS
 NSTEP =     1000   TIME(PS) =      22.000  TEMP(K) =   299.20  PRESS =  -917.1
 Etot   =    -57118.6690  EKtot   =     15198.2707  EPtot      =    -72316.9398
 BOND   =       509.1946  ANGLE   =      1233.2886  DIHED      =      2047.9177
 1-4 NB =       670.9431  1-4 EEL =      6064.9579  VDWAALS    =      8536.9384
 EELEC  =    -91659.7836  EHBOND  =         0.0000  RESTRAINT  =       279.6035
 EAMBER (non-restraint)  =    -72596.5432
 EKCMT  =      6665.1430  VIRIAL  =     12169.3372  VOLUME     =    277955.7243
                                                    Density    =         0.9107
 DV/DL  =        -2.7778
 Ewald error estimate:   0.7609E-05
 ------------------------------------------------------------------------------

      A V E R A G E S   O V E R      10 S T E P S

 NSTEP =    10000   TIME(PS) =      40.000  TEMP(K) =   300.65  PRESS =  -293.1
 Etot   =    -58415.8133  EKtot   =     15272.1448  EPtot      =    -73687.9580
 BOND   =       487.5385  ANGLE   =      1220.7149  DIHED      =      2042.3488
 1-4 NB =       673.5597  1-4 EEL =      6057.8456  VDWAALS    =      8732.5676
 EELEC  =    -93170.1661  EHBOND  =         0.0000  RESTRAINT  =       267.6328
 EAMBER (non-restraint)  =    -73955.5909
 EKCMT  =      6693.4915  VIRIAL  =      8378.4349  VOLUME     =    258486.3153
                                                    Density    =         0.9804
 DV/DL  =        -0.6956
 Ewald error estimate:   0.4293E-04
 ------------------------------------------------------------------------------

      R M S  F L U C T U A T I O N S

 NSTEP =    10000   TIME(PS) =      40.000  TEMP(K) =     2.17  PRESS =   276.3
 Etot   =       683.0804  EKtot   =       110.1931  EPtot      =       651.8795
 BOND   =        17.3511  ANGLE   =        29.3810  DIHED      =         8.0656
 1-4 NB =         8.4478  1-4 EEL =        18.2194  VDWAALS    =        92.3555
 EELEC  =       712.1995  EHBOND  =         0.0000  RESTRAINT  =         8.9208
 EAMBER (non-restraint)  =       642.9587
 EKCMT  =        61.2627  VIRIAL  =      1661.5080  VOLUME     =      8862.5843
                                                    Density    =         0.0325
 DV/DL  =         0.9020
 Ewald error estimate:   0.3224E-04
 ------------------------------------------------------------------------------

      A V E R A G E S   O V E R      10 S T E P S

 NSTEP =    10000   TIME(PS) =      40.000  TEMP(K) =   300.65  PRESS =  -293.1
 Etot   =    -58414.8523  EKtot   =     15273.1058  EPtot      =    -73687.9580
 BOND   =       487.5385  ANGLE   =      1220.7149  DIHED      =      2042.3488
 1-4 NB =       673.5597  1-4 EEL =      6057.8456  VDWAALS    =      8732.5676
 EELEC  =    -93170.1661  EHBOND  =         0.0000  RESTRAINT  =       267.6328
 EAMBER (non-restraint)  =    -73955.5909
 EKCMT  =      6693.4915  VIRIAL  =      8378.4349  VOLUME     =    258486.3153
                                                    Density    =         0.9805
 DV/DL  =        -0.6956
 Ewald error estimate:   0.4293E-04
 ------------------------------------------------------------------------------

      R M S  F L U C T U A T I O N S

 NSTEP =    10000   TIME(PS) =      40.000  TEMP(K) =     2.17  PRESS =   276.3
 Etot   =       683.2130  EKtot   =       110.0487  EPtot      =       651.8795
 BOND   =        17.3511  ANGLE   =        29.3810  DIHED      =         8.0656
 1-4 NB =         8.4478  1-4 EEL =        18.2194  VDWAALS    =        92.3555
 EELEC  =       712.1995  EHBOND  =         0.0000  RESTRAINT  =         8.9208
 EAMBER (non-restraint)  =       642.9587
 EKCMT  =        61.2627  VIRIAL  =      1661.5080  VOLUME     =      8862.5843
                                                    Density    =         0.0325
 DV/DL  =         0.9020
 Ewald error estimate:   0.3224E-04
 ------------------------------------------------------------------------------

      DV/DL, AVERAGES OVER      10 STEPS

 NSTEP =    10000   TIME(PS) =      40.000  TEMP(K) =     2.17  PRESS =     0.0
 Etot   =         0.0000  EKtot   =         0.0000  EPtot      =        -0.6956
 BOND   =        -0.0000  ANGLE   =         0.0000  DIHED      =         0.0000
 1-4 NB =        -0.0000  1-4 EEL =        -8.1115  VDWAALS    =         0.1488
 EELEC  =         7.2671  EHBOND  =         0.0000  RESTRAINT  =         0.0000
 EAMBER (non-restraint)  =        -0.6956
 EKCMT  =         0.0000  VIRIAL  =         0.0000  VOLUME     =         0.0000
                                                    Density    =         0.0000
 DV/DL  =        -0.6956
 Ewald error estimate:   0.0000E+00
 ------------------------------------------------------------------------------
