-------------------------------------------------------
          Amber 18 PMEMD                              2018
          -------------------------------------------------------

  [-O]verwriting output

File Assignments:

 Here is the input file:

TI simulation
 &cntrl
   imin = 0, nstlim = 100000, irest = 1, ntx = 5, dt = 0.002,
   ntt = 3, temp0 = 300.0, gamma_ln = 2.0, ig = -1,
   ntc = 2, ntf = 1,
   ntb = 2,
   ntp = 1, pres0 = 1.0, taup = 2.0,
   ioutfm = 1, iwrap = 1,
   ntwe = 1000, ntwx = 10000, ntpr = 10000, ntwr = 20000,

   icfe = 1, clambda = 0.9, scalpha = 0.5, scbeta = 12.0,
   logdvdl = 1,
   ifmbar = 1, bar_intervall = 1000, mbar_states = 11,
   mbar_lambda = 0.0, 0.1, 0.2, 0.3, 0.4, 0.5, 0.6, 0.7, 0.8, 0.9, 1.0,
   timask1 = ':1', timask2 = ':2',
   ifsc = 0, crgmask = ':2@H6',
 /

 &ewald
 /

Note: ig = -1. Setting random seed to   791812 based on wallclock time in
      microseconds.

--------------------------------------------------------------------------------
   1.  RESOURCE   USE:
--------------------------------------------------------------------------------

 getting box info from netcdf restart file
 NATOM  =   30552 NTYPES =      17 NBONH =   29246 MBONA  =    1322
 NTHETH =    2993 MTHETA =    1777 NPHIH =    6076 MPHIA  =    5533
 NHPARM =       0 NPARM  =       0 NNB   =   51640 NRES   =    9475
 NBONA  =    1322 NTHETA =    1777 NPHIA =    5533 NUMBND =      67
 NUMANG =     151 NPTRA  =     179 NATYP =      36 NPHB   =       1
 IFBOX  =       1 NMXRS  =      24 IFCAP =       0 NEXTRA =       0
 NCOPY  =       0

     BOX TYPE: RECTILINEAR

--------------------------------------------------------------------------------
   2.  CONTROL  DATA  FOR  THE  RUN
--------------------------------------------------------------------------------

default_name

General flags:
     imin    =       0, nmropt  =       0

Nature and format of input:
     ntx     =       5, irest   =       1, ntrx    =       1

Nature and format of output:
     ntxo    =       2, ntpr    =   10000, ntrx    =       1, ntwr    =   20000
     iwrap   =       1, ntwx    =   10000, ntwv    =       0, ntwe    =    1000
     ioutfm  =       1, ntwprt  =       0, idecomp =       0, rbornstat=      0

Potential function:
     ntf     =       1, ntb     =       2, igb     =       0, nsnb    =      25
     ipol    =       0, gbsa    =       0, iesp    =       0
     dielc   =   1.00000, cut     =   8.00000, intdiel =   1.00000

Frozen or restrained atoms:
     ibelly  =       0, ntr     =       0

Molecular dynamics:
     nstlim  =    100000, nscm    =      1000, nrespa  =         1
     t       =   0.00000, dt      =   0.00200, vlimit  =  20.00000

Langevin dynamics temperature regulation:
     ig      =  791812
     temp0   = 300.00000, tempi   =   0.00000, gamma_ln=   2.00000

Pressure regulation:
     ntp     =       1
     pres0   =   1.00000, comp    =  44.60000, taup    =   2.00000

SHAKE:
     ntc     =       2, jfastw  =       0
     tol     =   0.00001

Free energy options:
     icfe    =       1, ifsc    =       0, klambda =       1
     clambda =  0.9000, scalpha =  0.5000, scbeta  = 12.0000
     sceeorder =       2
     dynlmb =  0.0000 logdvdl =       1

FEP MBAR options:
     ifmbar  =       1,  bar_intervall =     1000
     mbar_states =      11

Ewald parameters:
     verbose =       0, ew_type =       0, nbflag  =       1, use_pme =       1
     vdwmeth =       1, eedmeth =       1, netfrc  =       1
     Box X =   68.526   Box Y =   72.839   Box Z =   81.366
     Alpha =   90.000   Beta  =   90.000   Gamma =   90.000
     NFFT1 =   72       NFFT2 =   75       NFFT3 =   90
     Cutoff=    8.000   Tol   =0.100E-04
     Ewald Coefficient =  0.34864
     Interpolation order =    4
     TI Mask 1 :1; matches     12 atoms
     TI Mask 2 :2; matches     12 atoms
     TI region 1:   30540 atoms
     TI region 2:   30540 atoms
Removing charge of       0.1305 from atom      24
Total charge of   0.13052100 removed from       1 atoms

    MBAR - lambda values considered:
      11 total:  0.0000 0.1000 0.2000 0.3000 0.4000 0.5000 0.6000 0.7000 0.8000 0.9000 1.0000
    Extra energies will be computed    100 times.
     Checking for mismatched coordinates.

--------------------------------------------------------------------------------
   3.  ATOMIC COORDINATES AND VELOCITIES
--------------------------------------------------------------------------------

default_name
 begin time read from input coords =    20.000 ps

 Number of triangulated 3-point waters found:     9307

     Sum of charges for TI region  1 =   0.00039993
     Forcing neutrality...

     Sum of charges for TI region  2 =  -0.13012107
     Assuming uniform neutralizing plasma

--------------------------------------------------------------------------------
   4.  RESULTS
 NSTEP =    10000   TIME(PS) =      40.000  TEMP(K) =   300.45  PRESS =  -387.4
 Etot   =    -72726.9665  EKtot   =     18621.8475  EPtot      =    -91348.8140
 BOND   =       475.6232  ANGLE   =      1277.0473  DIHED      =      2035.6678
 1-4 NB =       604.5219  1-4 EEL =      5948.8859  VDWAALS    =     11320.3773
 EELEC  =   -113010.9375  EHBOND  =         0.0000  RESTRAINT  =         0.0000
 EKCMT  =      8270.6910  VIRIAL  =     11313.0866  VOLUME     =    363699.5347
                                                    Density    =         0.8503
 DV/DL  =        -7.3865
 Ewald error estimate:   0.8663E-04
 ------------------------------------------------------------------------------

      A V E R A G E S   O V E R      10 S T E P S

 NSTEP =   100000   TIME(PS) =     220.000  TEMP(K) =   299.36  PRESS =   -60.8
 Etot   =    -73822.1868  EKtot   =     18554.4635  EPtot      =    -92376.6503
 BOND   =       502.2075  ANGLE   =      1252.9809  DIHED      =      2058.1319
 1-4 NB =       608.6838  1-4 EEL =      5934.0905  VDWAALS    =     11474.6808
 EELEC  =   -114207.4257  EHBOND  =         0.0000  RESTRAINT  =         0.0000
 EKCMT  =      8336.5299  VIRIAL  =      8798.7382  VOLUME     =    314053.2589
                                                    Density    =         0.9875
 DV/DL  =        -7.2509
 Ewald error estimate:   0.6837E-04
 ------------------------------------------------------------------------------

      R M S  F L U C T U A T I O N S

 NSTEP =   100000   TIME(PS) =     220.000  TEMP(K) =     1.75  PRESS =   157.3
 Etot   =       505.3978  EKtot   =       108.6899  EPtot      =       443.8707
 BOND   =        20.0122  ANGLE   =        18.1444  DIHED      =        18.7899
 1-4 NB =         5.4662  1-4 EEL =        19.5294  VDWAALS    =       175.2152
 EELEC  =       582.6263  EHBOND  =         0.0000  RESTRAINT  =         0.0000
 EKCMT  =        56.7749  VIRIAL  =      1167.8009  VOLUME     =     17622.7362
                                                    Density    =         0.0494
 DV/DL  =         0.8993
 Ewald error estimate:   0.4557E-04
 ------------------------------------------------------------------------------

      A V E R A G E S   O V E R      10 S T E P S

 NSTEP =   100000   TIME(PS) =     220.000  TEMP(K) =   299.36  PRESS =   -60.8
 Etot   =    -73822.1868  EKtot   =     18554.4635  EPtot      =    -92376.6503
 BOND   =       502.2075  ANGLE   =      1252.9809  DIHED      =      2058.1319
 1-4 NB =       608.6838  1-4 EEL =      5934.0905  VDWAALS    =     11474.6808
 EELEC  =   -114207.4257  EHBOND  =         0.0000  RESTRAINT  =         0.0000
 EKCMT  =      8336.5299  VIRIAL  =      8798.7382  VOLUME     =    314053.2589
                                                    Density    =         0.9875
 DV/DL  =        -7.2509
 Ewald error estimate:   0.6837E-04
 ------------------------------------------------------------------------------

      R M S  F L U C T U A T I O N S

 NSTEP =   100000   TIME(PS) =     220.000  TEMP(K) =     1.75  PRESS =   157.3
 Etot   =       505.3978  EKtot   =       108.6899  EPtot      =       443.8707
 BOND   =        20.0122  ANGLE   =        18.1444  DIHED      =        18.7899
 1-4 NB =         5.4662  1-4 EEL =        19.5294  VDWAALS    =       175.2152
 EELEC  =       582.6263  EHBOND  =         0.0000  RESTRAINT  =         0.0000
 EKCMT  =        56.7749  VIRIAL  =      1167.8009  VOLUME     =     17622.7362
                                                    Density    =         0.0494
 DV/DL  =         0.8993
 Ewald error estimate:   0.4557E-04
 ------------------------------------------------------------------------------

      DV/DL, AVERAGES OVER      10 STEPS

 NSTEP =   100000   TIME(PS) =     220.000  TEMP(K) =     1.75  PRESS =     0.0
 Etot   =         0.0000  EKtot   =         0.0000  EPtot      =        -7.2509
 BOND   =         0.0000  ANGLE   =         0.0000  DIHED      =         0.0000
 1-4 NB =         0.0000  1-4 EEL =        -1.0429  VDWAALS    =         0.0000
 EELEC  =        -6.2080  EHBOND  =         0.0000  RESTRAINT  =         0.0000
 EKCMT  =         0.0000  VIRIAL  =         0.0000  VOLUME     =         0.0000
                                                    Density    =         0.0000
 DV/DL  =        -7.2509
 Ewald error estimate:   0.0000E+00
 ------------------------------------------------------------------------------
